2020-02-14 13:24:04,391  INFO Gbl:63 JVM: 1.8.0_171; Oracle Corporation; mixed mode; 64-bit
2020-02-14 13:24:04,392  INFO Gbl:67 OS: Windows 10; 10.0; amd64
2020-02-14 13:24:04,392  INFO Gbl:70 CPU cores: 8
2020-02-14 13:24:04,392  INFO Gbl:71 max. Memory: 7282.0MB (7635730432B)
2020-02-14 13:24:04,394  INFO Gbl:109 MATSim-Build: r92f5a963d96c1378d104c07359ace3469f91ad77 (2019-04-10 11:10:17)
2020-02-14 13:24:04,399  INFO ControlerListenerManagerImpl:107 calling notifyStartup on org.matsim.counts.CountsControlerListener
2020-02-14 13:24:04,399  INFO ControlerListenerManagerImpl:107 calling notifyStartup on org.matsim.analysis.ModeStatsControlerListener
2020-02-14 13:24:04,399 DEBUG NetworkRoutingProvider:75 requesting network routing module with routingMode=car;	mode=car
2020-02-14 13:24:04,400  INFO ControlerListenerManagerImpl:107 calling notifyStartup on org.matsim.analysis.ScoreStatsControlerListener
2020-02-14 13:24:04,401  INFO ControlerListenerManagerImpl:110 all ControlerStartupListeners called.
2020-02-14 13:24:04,402  INFO ControlerUtils:58 config dump before iterations start
2020-02-14 13:24:04,442  INFO ControlerUtils:62 

<?xml version="1.0" encoding="UTF-8"?>
<!DOCTYPE config SYSTEM "http://www.matsim.org/files/dtd/config_v2.dtd">
<config>
	<module name="JDEQSim" >
		<param name="carSize" value="7.5" />
		<param name="endTime" value="undefined" />
		<param name="flowCapacityFactor" value="1.0" />
		<param name="gapTravelSpeed" value="15.0" />
		<param name="minimumInFlowCapacity" value="1800.0" />
		<param name="squeezeTime" value="1800.0" />
		<param name="storageCapacityFactor" value="1.0" />
	</module>
	<module name="TimeAllocationMutator" >
		<!-- Default:true; Defines whether time mutation changes an activity's duration. -->
		<param name="mutationAffectsDuration" value="true" />
		<!-- Default:1800.0; Defines how many seconds a time mutation can maximally shift a time. -->
		<param name="mutationRange" value="1800.0" />
		<!-- false; Use individual settings for each subpopulation. If enabled but no settings are found, regular settings are uses as fallback. -->
		<param name="useIndividualSettingsForSubpopulations" value="false" />
	</module>
	<module name="changeMode" >
		<!-- Defines whether car availability is considered be considered or not. An agent has no car only if it has no license, or never access to a car. Default: true -->
		<param name="ignoreCarAvailability" value="true" />
		<!-- Defines the mode switch behavior. Possible values [fromAllModesToSpecifiedModes, fromSpecifiedModesToSpecifiedModes] Default: fromSpecifiedModesToSpecifiedModes. -->
		<param name="modeSwitchBehavior" value="fromSpecifiedModesToSpecifiedModes" />
		<!-- Defines all the modes available, including chain-based modes, seperated by commas -->
		<param name="modes" value="car,pt" />
	</module>
	<module name="controler" >
		<!-- Sets whether graphs showing some analyses should automatically be generated during the simulation. The generation of graphs usually takes a small amount of time that does not have any weight in big simulations, but add a significant overhead in smaller runs or in test cases where the graphical output is not even requested. -->
		<param name="createGraphs" value="true" />
		<!-- true if at the end of a run, plans, network, config etc should be dumped to a file -->
		<param name="dumpDataAtEnd" value="true" />
		<!-- Default=false. If enabled, the router takes travel times needed for turning moves into account. Cannot be used if the (Fast)AStarLandmarks routing or TravelTimeCalculator.separateModes is enabled. -->
		<param name="enableLinkToLinkRouting" value="false" />
		<!-- Default=xml; Specifies the file format for writing events. Currently supported: xml.
		Multiple values can be specified separated by commas (','). -->
		<param name="eventsFileFormat" value="xml" />
		<!-- Default=0;  -->
		<param name="firstIteration" value="0" />
		<!-- Default=1000;  -->
		<param name="lastIteration" value="10" />
		<!-- Defines which mobility simulation will be used. Currently supported: qsim JDEQSim 
		Depending on the chosen mobsim, you'll have to add additional config modules to configure the corresponding mobsim.
		For 'qsim', add a module 'qsim' to the config. -->
		<param name="mobsim" value="qsim" />
		<param name="outputDirectory" value="../output" />
		<!-- Possible values: failIfDirectoryExists, overwriteExistingFiles, deleteDirectoryIfExists -->
		<param name="overwriteFiles" value="deleteDirectoryIfExists" />
		<!-- The type of routing (least cost path) algorithm used, may have the values: Dijkstra, FastDijkstra, AStarLandmarks or FastAStarLandmarks -->
		<param name="routingAlgorithmType" value="AStarLandmarks" />
		<!-- An identifier for the current run which is used as prefix for output files and mentioned in output xml files etc. -->
		<param name="runId" value="null" />
		<!-- Comma-separated list of visualizer output file formats. `transims', `googleearth', and `otfvis'. -->
		<param name="snapshotFormat" value="" />
		<!-- iterationNumber % writeEventsInterval == 0 defines in which iterations events are written to a file. `0' disables events writing completely. -->
		<param name="writeEventsInterval" value="5" />
		<!-- iterationNumber % writePlansInterval == 0 defines (hopefully) in which iterations plans are written to a file. `0' disables plans writing completely.  Some plans in early iterations are always written -->
		<param name="writePlansInterval" value="5" />
		<!-- iterationNumber % writeSnapshotsInterval == 0 defines in which iterations snapshots are written to a file. `0' disables snapshots writing completely -->
		<param name="writeSnapshotsInterval" value="5" />
	</module>
	<module name="counts" >
		<!-- Transport modes that will be respected for the counts comparison. 'car' is default, which includes also bussed from the pt simulation module. Use this parameter in combination with 'filterModes' = true! -->
		<param name="analyzedModes" value="car" />
		<!-- Specifies over how many iterations the link volumes should be averaged that are used for the counts comparison. Use 1 or 0 to only use the link volumes of a single iteration. This values cannot be larger than the value specified for writeCountsInterval -->
		<param name="averageCountsOverIterations" value="5" />
		<!-- factor by which to re-scale the simulated values.  necessary when simulation runs with something different from 100%.  needs to be adapted manually -->
		<param name="countsScaleFactor" value="1.0" />
		<!-- distance to distanceFilterCenterNode to include counting stations. The unit of distance is the Euclidean distance implied by the coordinate system -->
		<param name="distanceFilter" value="null" />
		<!-- node id for center node of distance filter -->
		<param name="distanceFilterCenterNode" value="null" />
		<!-- If true, link counts from legs performed on modes not included in the 'analyzedModes' parameter are ignored. -->
		<param name="filterModes" value="false" />
		<!-- The Coordinates Reference System in which the coordinates are expressed in the input file. At import, the coordinates will be converted to the coordinate system defined in "global", and willbe converted back at export. If not specified, no conversion happens. -->
		<param name="inputCRS" value="null" />
		<!-- input file name to counts package -->
		<param name="inputCountsFile" value="null" />
		<!-- possible values: `html', `kml', `txt', `all' -->
		<param name="outputformat" value="txt" />
		<!-- Specifies how often the counts comparison should be calculated and written. -->
		<param name="writeCountsInterval" value="10" />
	</module>
	<module name="facilities" >
		<!-- This defines how facilities should be created. Possible values: none fromFile setInScenario onePerActivityLinkInPlansFile onePerActivityLocationInPlansFile  -->
		<param name="facilitiesSource" value="none" />
		<!-- A prefix to be used for auto-generated IDs. -->
		<param name="idPrefix" value="autogen_" />
		<!-- The Coordinates Reference System in which the coordinates are expressed in the input file. At import, the coordinates will be converted to the coordinate system defined in "global", and willbe converted back at export. If not specified, no conversion happens. -->
		<param name="inputCRS" value="null" />
		<param name="inputFacilitiesFile" value="null" />
		<param name="inputFacilityAttributesFile" value="null" />
	</module>
	<module name="global" >
		<param name="coordinateSystem" value="Atlantis" />
		<param name="insistingOnDeprecatedConfigVersion" value="true" />
		<!-- "global" number of threads.  This number is used, e.g., for replanning, but NOT in the mobsim.  This can typically be set to as many cores as you have available, or possibly even slightly more. -->
		<param name="numberOfThreads" value="7" />
		<param name="randomSeed" value="4711" />
	</module>
	<module name="households" >
		<param name="inputFile" value="null" />
		<param name="inputHouseholdAttributesFile" value="null" />
	</module>
	<module name="linkStats" >
		<!-- Specifies over how many iterations the link volumes should be averaged that are used for the link statistics. Use 1 or 0 to only use the link volumes of a single iteration. This values cannot be larger than the value specified for writeLinkStatsInterval -->
		<param name="averageLinkStatsOverIterations" value="5" />
		<!-- Specifies how often the link stats should be calculated and written. Use 0 to disable the generation of link stats. -->
		<param name="writeLinkStatsInterval" value="10" />
	</module>
	<module name="network" >
		<!-- The Coordinates Reference System in which the coordinates are expressed in the input file. At import, the coordinates will be converted to the coordinate system defined in "global", and willbe converted back at export. If not specified, no conversion happens. -->
		<param name="inputCRS" value="null" />
		<param name="inputChangeEventsFile" value="null" />
		<param name="inputNetworkFile" value="network.xml" />
		<param name="laneDefinitionsFile" value="null" />
		<param name="timeVariantNetwork" value="false" />
	</module>
	<module name="parallelEventHandling" >
		<!-- Estimated number of events during mobsim run. An optional optimization hint for the framework. -->
		<param name="estimatedNumberOfEvents" value="null" />
		<!-- Number of threads for parallel events handler. _null_ means the framework decides by itself. 0 is currently not possible. -->
		<param name="numberOfThreads" value="null" />
		<!-- If enabled, each event handler is assigned to its own thread. Note that enabling this feature disabled the numberOfThreads option! This feature is still experimental! -->
		<param name="oneThreadPerHandler" value="false" />
		<!-- If enabled, it is ensured that all events that are created during a time step of the mobility simulation are processed before the next time step is simulated. E.g. neccessary when within-day replanning is used. -->
		<param name="synchronizeOnSimSteps" value="true" />
	</module>
	<module name="planCalcScore" >
		<!-- logit model scale parameter. default: 1.  Has name and default value for historical reasons (see Bryan Raney's phd thesis). -->
		<param name="BrainExpBeta" value="1.0" />
		<param name="PathSizeLogitBeta" value="1.0" />
		<!-- fraction of iterations at which MSA score averaging is started. The matsim theory department suggests to use this together with switching off choice set innovation (where a similar switch exists), but it has not been tested yet. -->
		<param name="fractionOfIterationsToStartScoreMSA" value="null" />
		<!-- new_score = (1-learningRate)*old_score + learningRate * score_from_mobsim.  learning rates close to zero emulate score averaging, but slow down initial convergence -->
		<param name="learningRate" value="1.0" />
		<!-- There used to be a plateau between duration=0 and duration=zeroUtilityDuration. This caused durations to evolve to zero once they were below zeroUtilityDuration, causing problems.  Only use this switch if you need to be backwards compatible with some old results.  (changed nov'13) -->
		<param name="usingOldScoringBelowZeroUtilityDuration" value="false" />
		<!-- write a plans file in each iteration directory which contains what each agent actually did, and the score it received. -->
		<param name="writeExperiencedPlans" value="false" />
		<parameterset type="scoringParameters" >
			<param name="earlyDeparture" value="-0.0" />
			<param name="lateArrival" value="-18.0" />
			<param name="marginalUtilityOfMoney" value="1.0" />
			<param name="performing" value="6.0" />
			<param name="subpopulation" value="null" />
			<param name="utilityOfLineSwitch" value="-1.0" />
			<param name="waiting" value="-0.0" />
			<param name="waitingPt" value="-6.0" />
			<parameterset type="activityParams" >
				<param name="activityType" value="dummy" />
				<param name="closingTime" value="undefined" />
				<param name="earliestEndTime" value="undefined" />
				<param name="latestStartTime" value="undefined" />
				<param name="minimalDuration" value="undefined" />
				<param name="openingTime" value="undefined" />
				<param name="priority" value="1.0" />
				<param name="scoringThisActivityAtAll" value="true" />
				<!-- typical duration of activity.  needs to be defined and non-zero.  in sec. -->
				<param name="typicalDuration" value="02:00:00" />
				<!-- method to compute score at typical duration.  Options: | uniform | relative | Use uniform for backwards compatibility (all activities same score; higher proba to drop long acts). -->
				<param name="typicalDurationScoreComputation" value="relative" />
			</parameterset>
			<parameterset type="activityParams" >
				<param name="activityType" value="car interaction" />
				<param name="closingTime" value="undefined" />
				<param name="earliestEndTime" value="undefined" />
				<param name="latestStartTime" value="undefined" />
				<param name="minimalDuration" value="undefined" />
				<param name="openingTime" value="undefined" />
				<param name="priority" value="1.0" />
				<param name="scoringThisActivityAtAll" value="false" />
				<param name="typicalDuration" value="undefined" />
				<param name="typicalDurationScoreComputation" value="relative" />
			</parameterset>
			<parameterset type="activityParams" >
				<param name="activityType" value="pt interaction" />
				<param name="closingTime" value="undefined" />
				<param name="earliestEndTime" value="undefined" />
				<param name="latestStartTime" value="undefined" />
				<param name="minimalDuration" value="undefined" />
				<param name="openingTime" value="undefined" />
				<param name="priority" value="1.0" />
				<param name="scoringThisActivityAtAll" value="false" />
				<param name="typicalDuration" value="undefined" />
				<param name="typicalDurationScoreComputation" value="relative" />
			</parameterset>
			<parameterset type="activityParams" >
				<param name="activityType" value="bike interaction" />
				<param name="closingTime" value="undefined" />
				<param name="earliestEndTime" value="undefined" />
				<param name="latestStartTime" value="undefined" />
				<param name="minimalDuration" value="undefined" />
				<param name="openingTime" value="undefined" />
				<param name="priority" value="1.0" />
				<param name="scoringThisActivityAtAll" value="false" />
				<param name="typicalDuration" value="undefined" />
				<param name="typicalDurationScoreComputation" value="relative" />
			</parameterset>
			<parameterset type="activityParams" >
				<param name="activityType" value="other interaction" />
				<param name="closingTime" value="undefined" />
				<param name="earliestEndTime" value="undefined" />
				<param name="latestStartTime" value="undefined" />
				<param name="minimalDuration" value="undefined" />
				<param name="openingTime" value="undefined" />
				<param name="priority" value="1.0" />
				<param name="scoringThisActivityAtAll" value="false" />
				<param name="typicalDuration" value="undefined" />
				<param name="typicalDurationScoreComputation" value="relative" />
			</parameterset>
			<parameterset type="activityParams" >
				<param name="activityType" value="walk interaction" />
				<param name="closingTime" value="undefined" />
				<param name="earliestEndTime" value="undefined" />
				<param name="latestStartTime" value="undefined" />
				<param name="minimalDuration" value="undefined" />
				<param name="openingTime" value="undefined" />
				<param name="priority" value="1.0" />
				<param name="scoringThisActivityAtAll" value="false" />
				<param name="typicalDuration" value="undefined" />
				<param name="typicalDurationScoreComputation" value="relative" />
			</parameterset>
			<parameterset type="activityParams" >
				<param name="activityType" value="home" />
				<param name="closingTime" value="undefined" />
				<param name="earliestEndTime" value="undefined" />
				<param name="latestStartTime" value="undefined" />
				<param name="minimalDuration" value="undefined" />
				<param name="openingTime" value="undefined" />
				<param name="priority" value="1.0" />
				<param name="scoringThisActivityAtAll" value="true" />
				<param name="typicalDuration" value="08:00:00" />
				<param name="typicalDurationScoreComputation" value="uniform" />
			</parameterset>
			<parameterset type="activityParams" >
				<param name="activityType" value="intermediate_home" />
				<param name="closingTime" value="undefined" />
				<param name="earliestEndTime" value="undefined" />
				<param name="latestStartTime" value="undefined" />
				<param name="minimalDuration" value="undefined" />
				<param name="openingTime" value="undefined" />
				<param name="priority" value="1.0" />
				<param name="scoringThisActivityAtAll" value="true" />
				<param name="typicalDuration" value="01:00:00" />
				<param name="typicalDurationScoreComputation" value="uniform" />
			</parameterset>
			<parameterset type="activityParams" >
				<param name="activityType" value="work" />
				<param name="closingTime" value="17:30:00" />
				<param name="earliestEndTime" value="undefined" />
				<param name="latestStartTime" value="undefined" />
				<param name="minimalDuration" value="undefined" />
				<param name="openingTime" value="07:30:00" />
				<param name="priority" value="1.0" />
				<param name="scoringThisActivityAtAll" value="true" />
				<param name="typicalDuration" value="08:00:00" />
				<param name="typicalDurationScoreComputation" value="uniform" />
			</parameterset>
			<parameterset type="activityParams" >
				<param name="activityType" value="other" />
				<param name="closingTime" value="21:30:00" />
				<param name="earliestEndTime" value="undefined" />
				<param name="latestStartTime" value="undefined" />
				<param name="minimalDuration" value="undefined" />
				<param name="openingTime" value="07:30:00" />
				<param name="priority" value="1.0" />
				<param name="scoringThisActivityAtAll" value="true" />
				<param name="typicalDuration" value="01:30:00" />
				<param name="typicalDurationScoreComputation" value="uniform" />
			</parameterset>
			<parameterset type="modeParams" >
				<!-- [utils] alternative-specific constant.  Normally per trip, but that is probably buggy for multi-leg trips. -->
				<param name="constant" value="0.0" />
				<!-- [money] daily monetary constant. default=0 to be backwards compatible -->
				<param name="dailyMonetaryConstant" value="0.0" />
				<!-- [utils] daily utility constant. default=0 to be backwards compatible -->
				<param name="dailyUtilityConstant" value="0.0" />
				<!-- [utils/m] utility of traveling (e.g. walking or driving) per m, normally negative.  this is on top of the time (dis)utility. -->
				<param name="marginalUtilityOfDistance_util_m" value="0.0" />
				<!-- [utils/hr] additional marginal utility of traveling.  normally negative.  this comes on top of the opportunity cost of time -->
				<param name="marginalUtilityOfTraveling_util_hr" value="-6.0" />
				<param name="mode" value="car" />
				<!-- [unit_of_money/m] conversion of distance into money. Normally negative. -->
				<param name="monetaryDistanceRate" value="0.0" />
			</parameterset>
			<parameterset type="modeParams" >
				<param name="constant" value="0.0" />
				<param name="dailyMonetaryConstant" value="0.0" />
				<param name="dailyUtilityConstant" value="0.0" />
				<param name="marginalUtilityOfDistance_util_m" value="0.0" />
				<param name="marginalUtilityOfTraveling_util_hr" value="-6.0" />
				<param name="mode" value="pt" />
				<param name="monetaryDistanceRate" value="0.0" />
			</parameterset>
			<parameterset type="modeParams" >
				<param name="constant" value="0.0" />
				<param name="dailyMonetaryConstant" value="0.0" />
				<param name="dailyUtilityConstant" value="0.0" />
				<param name="marginalUtilityOfDistance_util_m" value="0.0" />
				<param name="marginalUtilityOfTraveling_util_hr" value="-6.0" />
				<param name="mode" value="walk" />
				<param name="monetaryDistanceRate" value="0.0" />
			</parameterset>
			<parameterset type="modeParams" >
				<param name="constant" value="0.0" />
				<param name="dailyMonetaryConstant" value="0.0" />
				<param name="dailyUtilityConstant" value="0.0" />
				<param name="marginalUtilityOfDistance_util_m" value="0.0" />
				<param name="marginalUtilityOfTraveling_util_hr" value="-6.0" />
				<param name="mode" value="bike" />
				<param name="monetaryDistanceRate" value="0.0" />
			</parameterset>
			<parameterset type="modeParams" >
				<param name="constant" value="0.0" />
				<param name="dailyMonetaryConstant" value="0.0" />
				<param name="dailyUtilityConstant" value="0.0" />
				<param name="marginalUtilityOfDistance_util_m" value="0.0" />
				<param name="marginalUtilityOfTraveling_util_hr" value="-6.0" />
				<param name="mode" value="ride" />
				<param name="monetaryDistanceRate" value="0.0" />
			</parameterset>
			<parameterset type="modeParams" >
				<param name="constant" value="0.0" />
				<param name="dailyMonetaryConstant" value="0.0" />
				<param name="dailyUtilityConstant" value="0.0" />
				<param name="marginalUtilityOfDistance_util_m" value="0.0" />
				<param name="marginalUtilityOfTraveling_util_hr" value="-6.0" />
				<param name="mode" value="other" />
				<param name="monetaryDistanceRate" value="0.0" />
			</parameterset>
		</parameterset>
	</module>
	<module name="plans" >
		<!-- String: minOfDurationAndEndTime tryEndTimeThenDuration endTimeOnly. Anything besides minOfDurationAndEndTime will internally use a different (simpler) version of the TimeAllocationMutator. -->
		<param name="activityDurationInterpretation" value="tryEndTimeThenDuration" />
		<!-- The Coordinates Reference System in which the coordinates are expressed in the input file. At import, the coordinates will be converted to the coordinate system defined in "global", and willbe converted back at export. If not specified, no conversion happens. -->
		<param name="inputCRS" value="null" />
		<param name="inputPersonAttributesFile" value="null" />
		<param name="inputPlansFile" value="1PctAllModes_enriched.xml" />
		<!-- Defines how routes are stored in memory. Currently supported: LinkNetworkRoute, CompressedNetworkRoute. -->
		<param name="networkRouteType" value="LinkNetworkRoute" />
		<!-- (not tested) will remove plan attributes that are presumably not used, such as activityStartTime. default=false. Use with Caution! -->
		<param name="removingUnnecessaryPlanAttributes" value="false" />
		<!-- Name of the (Object)Attribute defining the subpopulation to which pertains a Person (as freight, through traffic, etc.). The attribute must be of String type.  Change away from default only in desperate situations. -->
		<param name="subpopulationAttributeName" value="subpopulation" />
	</module>
	<module name="planscalcroute" >
		<!-- All the modes for which the router is supposed to generate network routes (like car) -->
		<param name="networkModes" value="car" />
		<parameterset type="teleportedModeParameters" >
			<param name="beelineDistanceFactor" value="1.3" />
			<param name="mode" value="bike" />
			<!-- Free-speed factor for a teleported mode. Travel time = teleportedModeFreespeedFactor * <freespeed car travel time>. Insert a line like this for every such mode. Please do not set teleportedModeFreespeedFactor as well as teleportedModeSpeed for the same mode, but if you do, +teleportedModeFreespeedFactor wins over teleportedModeSpeed. -->
			<param name="teleportedModeFreespeedFactor" value="null" />
			<!-- Speed for a teleported mode. Travel time = (<beeline distance> * beelineDistanceFactor) / teleportedModeSpeed. Insert a line like this for every such mode. -->
			<param name="teleportedModeSpeed" value="4.166666666666667" />
		</parameterset>
		<parameterset type="teleportedModeParameters" >
			<param name="beelineDistanceFactor" value="1.3" />
			<param name="mode" value="walk" />
			<param name="teleportedModeFreespeedFactor" value="null" />
			<param name="teleportedModeSpeed" value="0.8333333333333333" />
		</parameterset>
		<parameterset type="teleportedModeParameters" >
			<param name="beelineDistanceFactor" value="1.3" />
			<param name="mode" value="access_walk" />
			<param name="teleportedModeFreespeedFactor" value="null" />
			<param name="teleportedModeSpeed" value="0.8333333333333333" />
		</parameterset>
		<parameterset type="teleportedModeParameters" >
			<param name="beelineDistanceFactor" value="1.3" />
			<param name="mode" value="egress_walk" />
			<param name="teleportedModeFreespeedFactor" value="null" />
			<param name="teleportedModeSpeed" value="0.8333333333333333" />
		</parameterset>
		<parameterset type="teleportedModeParameters" >
			<param name="beelineDistanceFactor" value="1.3" />
			<param name="mode" value="undefined" />
			<param name="teleportedModeFreespeedFactor" value="null" />
			<param name="teleportedModeSpeed" value="13.88888888888889" />
		</parameterset>
		<parameterset type="teleportedModeParameters" >
			<param name="beelineDistanceFactor" value="1.3" />
			<param name="mode" value="ride" />
			<param name="teleportedModeFreespeedFactor" value="1.0" />
			<param name="teleportedModeSpeed" value="null" />
		</parameterset>
		<parameterset type="teleportedModeParameters" >
			<param name="beelineDistanceFactor" value="1.3" />
			<param name="mode" value="pt" />
			<param name="teleportedModeFreespeedFactor" value="2.0" />
			<param name="teleportedModeSpeed" value="null" />
		</parameterset>
	</module>
	<module name="ptCounts" >
		<!-- factor by which to re-scale the simulated values.  necessary when simulation runs with something different from 100%.  needs to be adapted manually -->
		<param name="countsScaleFactor" value="1.0" />
		<!-- distance to distanceFilterCenterNode to include counting stations. The unit of distance is the Euclidean distance implied by the coordinate system -->
		<param name="distanceFilter" value="null" />
		<!-- node id for center node of distance filter -->
		<param name="distanceFilterCenterNode" value="null" />
		<!-- input file containing the alighting (getting off) counts for pt -->
		<param name="inputAlightCountsFile" value="null" />
		<!-- input file containing the boarding (getting on) counts for pt -->
		<param name="inputBoardCountsFile" value="null" />
		<!-- input file containing the occupancy counts for pt -->
		<param name="inputOccupancyCountsFile" value="null" />
		<!-- possible values: `html', `kml', `txt', `all' -->
		<param name="outputformat" value="null" />
		<!-- every how many iterations (starting with 0) counts comparisons are generated -->
		<param name="ptCountsInterval" value="10" />
	</module>
	<module name="qsim" >
		<param name="endTime" value="30:00:00" />
		<param name="flowCapacityFactor" value="0.02" />
		<!-- decides if waiting vehicles enter the network after or before the already driving vehicles were moved. Default: false -->
		<param name="insertingWaitingVehiclesBeforeDrivingVehicles" value="true" />
		<!-- If link dynamics is set as SeepageQ, set to false if all seep modes should perform seepage. Default is true (better option). -->
		<param name="isRestrictingSeepage" value="true" />
		<!-- If link dynamics is set as SeepageQ, set to true if seep mode do not consumes any space on the link. Default is false. -->
		<param name="isSeepModeStorageFree" value="false" />
		<!-- default: FIFO; options: FIFO PassingQ SeepageQ -->
		<param name="linkDynamics" value="FIFO" />
		<!-- The (initial) width of the links of the network. Use positive floating point values. This is used only for visualisation. -->
		<param name="linkWidth" value="30.0" />
		<!-- [comma-separated list] Defines which modes are congested modes. Technically, these are the modes that the departure handler of the netsimengine handles.  Effective cell size, effective lane width, flow capacity factor, and storage capacity factor need to be set with diligence.  Need to be vehicular modes to make sense. -->
		<param name="mainMode" value="car" />
		<!-- Shortens a link in the visualization, i.e. its start and end point are moved into towards the center. Does not affect traffic flow.  -->
		<param name="nodeOffset" value="0.0" />
		<!-- Number of threads used for the QSim.  Note that this setting is independent from the "global" threads setting.  In contrast to earlier versions, the non-parallel special version is no longer there. -->
		<param name="numberOfThreads" value="7" />
		<!-- Boolean. `true': stuck vehicles are removed, aborting the plan; `false': stuck vehicles are forced into the next link. `false' is probably the better choice. -->
		<param name="removeStuckVehicles" value="false" />
		<!-- If link dynamics is set as SeepageQ, set a seep mode. Default is bike. -->
		<param name="seepMode" value="bike" />
		<!-- Possible values: minOfEndtimeAndMobsimFinished, onlyUseEndtime -->
		<param name="simEndtimeInterpretation" value="null" />
		<!-- Options: maxOfStarttimeAndEarliestActivityEnd onlyUseStarttime  -->
		<param name="simStarttimeInterpretation" value="maxOfStarttimeAndEarliestActivityEnd" />
		<!-- snapshotStyle. One of: equiDist queue withHoles withHolesAndShowHoles kinematicWaves  -->
		<param name="snapshotStyle" value="equiDist" />
		<param name="snapshotperiod" value="00:00:00" />
		<param name="startTime" value="00:00:00" />
		<param name="storageCapacityFactor" value="0.02" />
		<!-- time in seconds.  Time after which the frontmost vehicle on a link is called `stuck' if it does not move. -->
		<param name="stuckTime" value="10.0" />
		<param name="timeStepSize" value="00:00:01" />
		<!-- options: queue withHoles kinematicWaves  -->
		<param name="trafficDynamics" value="queue" />
		<!-- Set this parameter to true if lanes should be used, false if not. -->
		<param name="useLanes" value="false" />
		<!-- If a route does not reference a vehicle, agents will use the vehicle with the same id as their own. -->
		<param name="usePersonIdForMissingVehicleId" value="true" />
		<!-- If false, the qsim accumulates fractional flows up to one flow unit in every time step.  If true, flows are updated only if an agent wants to enter the link or an agent is added to buffer. Default is true. -->
		<param name="usingFastCapacityUpdate" value="true" />
		<!-- if the qsim should use as many runners as there are threads (Christoph's dissertation version) or more of them, together with a thread pool (seems to be faster in some situations, but is not tested). -->
		<param name="usingThreadpool" value="true" />
		<!-- Defines what happens if an agent wants to depart, but the specified vehicle is not available. One of: teleport wait exception  -->
		<param name="vehicleBehavior" value="teleport" />
		<!-- If vehicles should all be the same default vehicle, or come from the vehicles file, or something else.  Possible values:  defaultVehicle modeVehicleTypesFromVehiclesData fromVehiclesData -->
		<param name="vehiclesSource" value="defaultVehicle" />
	</module>
	<module name="strategy" >
		<!-- the external executable will be called with a config file as argument.  This is the pathname to a possible skeleton config, to which additional information will be added.  Can be null. -->
		<param name="ExternalExeConfigTemplate" value="null" />
		<!-- time out value (in seconds) after which matsim will consider the external strategy as failed -->
		<param name="ExternalExeTimeOut" value="3600" />
		<!-- root directory for temporary files generated by the external executable. Provided as a service; I don't think this is used by MATSim. -->
		<param name="ExternalExeTmpFileRootDir" value="null" />
		<!-- fraction of iterations where innovative strategies are switched off.  Something like 0.8 should be good.  E.g. if you run from iteration 400 to iteration 500, innovation is switched off at iteration 480 -->
		<param name="fractionOfIterationsToDisableInnovation" value="Infinity" />
		<!-- maximum number of plans per agent.  ``0'' means ``infinity''.  Currently (2010), ``5'' is a good number -->
		<param name="maxAgentPlanMemorySize" value="5" />
		<!-- strategyName of PlanSelector for plans removal.  Possible defaults: WorstPlanSelector SelectRandom SelectExpBetaForRemoval ChangeExpBetaForRemoval PathSizeLogitSelectorForRemoval . The current default, WorstPlanSelector is not a good choice from a discrete choice theoretical perspective. Alternatives, however, have not been systematically tested. kai, feb'12 -->
		<param name="planSelectorForRemoval" value="WorstPlanSelector" />
		<parameterset type="strategysettings" >
			<!-- iteration after which strategy will be disabled.  most useful for ``innovative'' strategies (new routes, new times, ...). Normally, better use fractionOfIterationsToDisableInnovation -->
			<param name="disableAfterIteration" value="-1" />
			<!-- path to external executable (if applicable) -->
			<param name="executionPath" value="null" />
			<!-- strategyName of strategy.  Possible default names: SelectRandomBestScoreKeepLastSelectedChangeExpBetaSelectExpBetaSelectPathSizeLogit (selectors), ReRouteTimeAllocationMutatorTimeAllocationMutator_ReRouteChangeSingleTripModeChangeTripModeSubtourModeChoice (innovative strategies). -->
			<param name="strategyName" value="KeepLastSelected" />
			<!-- subpopulation to which the strategy applies. "null" refers to the default population, that is, the set of persons for which no explicit subpopulation is defined (ie no subpopulation attribute) -->
			<param name="subpopulation" value="null" />
			<!-- weight of a strategy: for each agent, a strategy will be selected with a probability proportional to its weight -->
			<param name="weight" value="0.9" />
		</parameterset>
		<parameterset type="strategysettings" >
			<param name="disableAfterIteration" value="-1" />
			<param name="executionPath" value="null" />
			<param name="strategyName" value="ReRoute" />
			<param name="subpopulation" value="null" />
			<param name="weight" value="0.1" />
		</parameterset>
	</module>
	<module name="subtourModeChoice" >
		<!-- Only for backwards compatibility.  Defines if only trips from modes list should change mode, or all trips.  Options: fromAllModesToSpecifiedModes fromSpecifiedModesToSpecifiedModes  -->
		<param name="behavior" value="fromSpecifiedModesToSpecifiedModes" />
		<!-- Defines the chain-based modes, seperated by commas -->
		<param name="chainBasedModes" value="car,bike" />
		<!-- Defines whether car availability must be considered or not. A agent has no car only if it has no license, or never access to a car -->
		<param name="considerCarAvailability" value="false" />
		<!-- Defines all the modes available, including chain-based modes, seperated by commas -->
		<param name="modes" value="car,pt,bike,walk" />
	</module>
	<module name="transit" >
		<!-- The Coordinates Reference System in which the coordinates are expressed in the input file. At import, the coordinates will be converted to the coordinate system defined in "global", and willbe converted back at export. If not specified, no conversion happens. -->
		<param name="inputScheduleCRS" value="null" />
		<!-- Optional input file containing additional attributes for transit lines, stored as ObjectAttributes. -->
		<param name="transitLinesAttributesFile" value="null" />
		<!-- Comma-separated list of transportation modes that are handled as transit. Defaults to 'pt'. -->
		<param name="transitModes" value="pt" />
		<!-- Input file containing the transit schedule to be simulated. -->
		<param name="transitScheduleFile" value="null" />
		<!-- Optional input file containing additional attributes for transit stop facilities, stored as ObjectAttributes. -->
		<param name="transitStopsAttributesFile" value="null" />
		<!-- Set this parameter to true if transit should be simulated, false if not. -->
		<param name="useTransit" value="false" />
		<!-- Input file containing the vehicles used by the departures in the transit schedule. -->
		<param name="vehiclesFile" value="null" />
	</module>
	<module name="transitRouter" >
		<!-- additional time the router allocates when a line switch happens. Can be interpreted as a 'safety' time that agents need to safely transfer from one line to another -->
		<param name="additionalTransferTime" value="0.0" />
		<!-- Factor with which direct walk generalized cost is multiplied before it is compared to the pt generalized cost.  Set to a very high value to reduce direct walk results. -->
		<param name="directWalkFactor" value="1.0" />
		<!-- step size to increase searchRadius if no stops are found -->
		<param name="extensionRadius" value="200.0" />
		<!-- maximum beeline distance between stops that agents could transfer to by walking -->
		<param name="maxBeelineWalkConnectionDistance" value="100.0" />
		<!-- the radius in which stop locations are searched, given a start or target coordinate -->
		<param name="searchRadius" value="1000.0" />
	</module>
	<module name="travelTimeCalculator" >
		<!-- (only for backwards compatibility; only used if separateModes==false && + filterModes==true)  Transport modes that will be respected by the travel time collector. 'car' is default which includes also buses from the pt simulation module. -->
		<param name="analyzedModes" value="car" />
		<param name="calculateLinkToLinkTravelTimes" value="false" />
		<param name="calculateLinkTravelTimes" value="true" />
		<!-- (only for backwards compatiblity; only used if separateModes==false)  Only modes included in analyzedModes are included. -->
		<param name="filterModes" value="false" />
		<!-- The lenght (in sec) of the time period that is splited into time bins; an additional time bin is created to aggregate all travel times collected after maxTime -->
		<param name="maxTime" value="108000" />
		<!-- (only for backwards compatibility) If false, link travel times are measured and aggregated over all vehicles using the link. -->
		<param name="separateModes" value="true" />
		<!-- How to deal with congested time bins that have no link entry events. `optimistic' assumes free speed (too optimistic); 'experimental_LastMile' is experimental and probably too pessimistic. -->
		<param name="travelTimeAggregator" value="optimistic" />
		<!-- The size of the time bin (in sec) into which the link travel times are aggregated for the router -->
		<param name="travelTimeBinSize" value="900" />
		<!-- possible values: TravelTimeCalculatorArray TravelTimeCalculatorHashMap  -->
		<param name="travelTimeCalculator" value="TravelTimeCalculatorArray" />
		<!-- How to deal with link entry times at different positions during the time bin. Currently supported: average, linearinterpolation -->
		<param name="travelTimeGetter" value="average" />
	</module>
	<module name="vehicles" >
		<param name="vehiclesFile" value="null" />
	</module>
	<module name="vspExperimental" >
		<!-- (do not use except of you have to) There was a problem with pt interaction scoring.  Some people solved it by overwriting the parameters of the pt interaction activity type.  Doing this now throws an Exception.  If you still insist on doing this, set the following to true. -->
		<param name="isAbleToOverwritePtInteractionParams" value="false" />
		<param name="isGeneratingBoardingDeniedEvent" value="false" />
		<!-- if an approximation of the opportunity cost of time is included into the radius calculation for location choice.`true' will be faster, but it is an approximation.  Default is `true'; `false' is available for backwards compatibility. -->
		<param name="isUsingOpportunityCostOfTimeForLocationChoice" value="true" />
		<param name="logitScaleParamForPlansRemoval" value="1.0" />
		<!-- Options: | ignore | info | warn | abort | .  When violating VSP defaults, this results in nothing, logfile infos, logfile warnings, or aborts.  Members of VSP should use `abort' or talk to kai. -->
		<param name="vspDefaultsCheckingLevel" value="ignore" />
		<!-- if true then writes output_events in output directory.  default is `false'. Will only work when lastIteration is multiple of events writing interval -->
		<param name="writingOutputEvents" value="true" />
	</module>

</config>

2020-02-14 13:24:04,446  INFO ControlerUtils:63 Complete config dump done.
2020-02-14 13:24:04,446  INFO ControlerUtils:64 Checking consistency of config...
2020-02-14 13:24:04,447  INFO VspConfigConsistencyCheckerImpl:58 NOT running vsp config consistency check because vsp defaults checking level is set to IGNORE
2020-02-14 13:24:04,447  INFO ControlerUtils:66 Checking consistency of config done.
2020-02-14 13:24:04,486 DEBUG NetworkRoutingProvider:75 requesting network routing module with routingMode=car;	mode=car
2020-02-14 13:24:04,498 DEBUG NetworkRoutingProvider:75 requesting network routing module with routingMode=car;	mode=car
2020-02-14 13:24:04,508 DEBUG NetworkRoutingProvider:75 requesting network routing module with routingMode=car;	mode=car
2020-02-14 13:24:04,515 DEBUG NetworkRoutingProvider:75 requesting network routing module with routingMode=car;	mode=car
2020-02-14 13:24:04,571 DEBUG NetworkRoutingProvider:75 requesting network routing module with routingMode=car;	mode=car
2020-02-14 13:24:04,579 DEBUG NetworkRoutingProvider:75 requesting network routing module with routingMode=car;	mode=car
2020-02-14 13:24:04,585 DEBUG NetworkRoutingProvider:75 requesting network routing module with routingMode=car;	mode=car
2020-02-14 13:24:04,607  INFO Counter:70 [PersonPrepareForSim] handled person # 1
2020-02-14 13:24:04,687  INFO Counter:70 [PersonPrepareForSim] handled person # 2
2020-02-14 13:24:04,695  INFO Counter:70 [PersonPrepareForSim] handled person # 4
2020-02-14 13:24:04,704  INFO Counter:70 [PersonPrepareForSim] handled person # 8
2020-02-14 13:24:04,733  INFO Counter:70 [PersonPrepareForSim] handled person # 16
2020-02-14 13:24:04,776  INFO Counter:70 [PersonPrepareForSim] handled person # 32
2020-02-14 13:24:04,820  INFO Counter:70 [PersonPrepareForSim] handled person # 64
2020-02-14 13:24:05,036  INFO Counter:70 [PersonPrepareForSim] handled person # 128
2020-02-14 13:24:05,273  INFO Counter:70 [PersonPrepareForSim] handled person # 256
2020-02-14 13:24:05,598  INFO Counter:70 [PersonPrepareForSim] handled person # 512
2020-02-14 13:24:06,006  INFO Counter:70 [PersonPrepareForSim] handled person # 1024
2020-02-14 13:24:07,501  INFO Counter:70 [PersonPrepareForSim] handled person # 2048
2020-02-14 13:24:08,934  INFO Counter:70 [PersonPrepareForSim] handled person # 4096
2020-02-14 13:24:12,201  INFO Counter:70 [PersonPrepareForSim] handled person # 8192
2020-02-14 13:24:15,099  INFO Counter:76 [PersonPrepareForSim] handled person # 13749
2020-02-14 13:24:15,100  INFO Counter:70 [VehiclesImpl] added vehicle # 1
2020-02-14 13:24:15,100  INFO Counter:70 [VehiclesImpl] added vehicle # 2
2020-02-14 13:24:15,100  INFO Counter:70 [VehiclesImpl] added vehicle # 4
2020-02-14 13:24:15,100  INFO Counter:70 [VehiclesImpl] added vehicle # 8
2020-02-14 13:24:15,101  INFO Counter:70 [VehiclesImpl] added vehicle # 16
2020-02-14 13:24:15,101  INFO Counter:70 [VehiclesImpl] added vehicle # 32
2020-02-14 13:24:15,101  INFO Counter:70 [VehiclesImpl] added vehicle # 64
2020-02-14 13:24:15,102  INFO Counter:70 [VehiclesImpl] added vehicle # 128
2020-02-14 13:24:15,103  INFO Counter:70 [VehiclesImpl] added vehicle # 256
2020-02-14 13:24:15,104  INFO Counter:70 [VehiclesImpl] added vehicle # 512
2020-02-14 13:24:15,106  INFO Counter:70 [VehiclesImpl] added vehicle # 1024
2020-02-14 13:24:15,110  INFO Counter:70 [VehiclesImpl] added vehicle # 2048
2020-02-14 13:24:15,116  INFO Counter:70 [VehiclesImpl] added vehicle # 4096
2020-02-14 13:24:15,126  INFO Counter:70 [VehiclesImpl] added vehicle # 8192
2020-02-14 13:24:15,157  INFO AbstractController:123 ###################################################
2020-02-14 13:24:15,158  INFO AbstractController:124 ### ITERATION 0 BEGINS
2020-02-14 13:24:15,160  INFO ControlerListenerManagerImpl:145 calling notifyIterationStarts on org.matsim.analysis.LegHistogramListener
2020-02-14 13:24:15,160  INFO ControlerListenerManagerImpl:145 calling notifyIterationStarts on org.matsim.analysis.LinkStatsControlerListener
2020-02-14 13:24:15,160  INFO ControlerListenerManagerImpl:145 calling notifyIterationStarts on org.matsim.core.replanning.ReplanningContextImpl
2020-02-14 13:24:15,161  INFO ControlerListenerManagerImpl:145 calling notifyIterationStarts on org.matsim.core.scoring.ExperiencedPlansServiceImpl$1
2020-02-14 13:24:15,172  INFO ControlerListenerManagerImpl:145 calling notifyIterationStarts on org.matsim.core.scoring.ScoringFunctionsForPopulation$1
2020-02-14 13:24:15,260  INFO ControlerListenerManagerImpl:148 [it.0] all ControlerIterationStartsListeners called.
2020-02-14 13:24:15,261  INFO ControlerListenerManagerImpl:224 calling notifyBeforeMobsim on org.matsim.core.controler.corelisteners.EventsHandlingImpl
2020-02-14 13:24:15,261  INFO EventsManagerImpl:170 resetting Event-Handlers
2020-02-14 13:24:15,261  INFO EventsManagerImpl:177   org.matsim.core.trafficmonitoring.TravelTimeCalculator
2020-02-14 13:24:15,280  INFO EventsManagerImpl:177   org.matsim.core.scoring.EventsToLegsAndActivities
2020-02-14 13:24:15,281  INFO EventsManagerImpl:177   org.matsim.analysis.VolumesAnalyzer
2020-02-14 13:24:15,281  INFO EventsManagerImpl:177   org.matsim.core.events.algorithms.Vehicle2DriverEventHandler
2020-02-14 13:24:15,281  INFO EventsManagerImpl:177   org.matsim.core.scoring.ScoringFunctionsForPopulation
2020-02-14 13:24:15,281  INFO EventsManagerImpl:177   org.matsim.analysis.LegHistogram
2020-02-14 13:24:15,281  INFO EventsManagerImpl:177   org.matsim.analysis.CalcLegTimes
2020-02-14 13:24:15,286  INFO EventsManagerImpl:144 adding Event-Handler: org.matsim.core.events.algorithms.EventWriterXML
2020-02-14 13:24:15,286  INFO EventsManagerImpl:148   org.matsim.core.events.algorithms.EventWriter
2020-02-14 13:24:15,287  INFO EventsManagerImpl:148   org.matsim.core.events.handler.BasicEventHandler
2020-02-14 13:24:15,287  INFO EventsManagerImpl:207     > org.matsim.api.core.v01.events.Event
2020-02-14 13:24:15,287  INFO EventsManagerImpl:156 
2020-02-14 13:24:15,287  INFO EventsManagerImpl:144 adding Event-Handler: org.matsim.core.events.algorithms.EventWriterXML
2020-02-14 13:24:15,287  INFO EventsManagerImpl:148   org.matsim.core.events.algorithms.EventWriter
2020-02-14 13:24:15,288  INFO EventsManagerImpl:148   org.matsim.core.events.handler.BasicEventHandler
2020-02-14 13:24:15,288  INFO EventsManagerImpl:207     > org.matsim.api.core.v01.events.Event
2020-02-14 13:24:15,288  INFO EventsManagerImpl:156 
2020-02-14 13:24:15,288  INFO ControlerListenerManagerImpl:224 calling notifyBeforeMobsim on org.matsim.core.controler.corelisteners.PlansDumpingImpl
2020-02-14 13:24:15,288  INFO PlansDumpingImpl:76 dumping plans...
2020-02-14 13:24:15,324  INFO Counter:70 [PopulationWriter] dumped person # 1
2020-02-14 13:24:15,326  INFO Counter:70 [PopulationWriter] dumped person # 2
2020-02-14 13:24:15,329  INFO Counter:70 [PopulationWriter] dumped person # 4
2020-02-14 13:24:15,333  INFO Counter:70 [PopulationWriter] dumped person # 8
2020-02-14 13:24:15,341  INFO Counter:70 [PopulationWriter] dumped person # 16
2020-02-14 13:24:15,354  INFO Counter:70 [PopulationWriter] dumped person # 32
2020-02-14 13:24:15,372  INFO Counter:70 [PopulationWriter] dumped person # 64
2020-02-14 13:24:15,400  INFO Counter:70 [PopulationWriter] dumped person # 128
2020-02-14 13:24:15,446  INFO Counter:70 [PopulationWriter] dumped person # 256
2020-02-14 13:24:15,514  INFO Counter:70 [PopulationWriter] dumped person # 512
2020-02-14 13:24:15,676  INFO Counter:70 [PopulationWriter] dumped person # 1024
2020-02-14 13:24:15,945  INFO Counter:70 [PopulationWriter] dumped person # 2048
2020-02-14 13:24:16,616  INFO Counter:70 [PopulationWriter] dumped person # 4096
2020-02-14 13:24:17,633  INFO Counter:70 [PopulationWriter] dumped person # 8192
2020-02-14 13:24:18,599  INFO PopulationWriter:139 Population written to: ../output/ITERS/it.0/0.plans.xml.gz
2020-02-14 13:24:18,608  INFO Counter:76 [PopulationWriter] dumped person # 13749
2020-02-14 13:24:18,608  INFO PlansDumpingImpl:93 finished plans dump.
2020-02-14 13:24:18,608  INFO ControlerListenerManagerImpl:229 calling notifyBeforeMobsim on org.matsim.core.population.VspPlansCleaner
2020-02-14 13:24:18,643  INFO ControlerListenerManagerImpl:232 [it.0] all ControlerBeforeMobsimListeners called.
2020-02-14 13:24:18,649 DEBUG NetworkRoutingProvider:75 requesting network routing module with routingMode=car;	mode=car
2020-02-14 13:24:18,654 DEBUG NetworkRoutingProvider:75 requesting network routing module with routingMode=car;	mode=car
2020-02-14 13:24:18,660 DEBUG NetworkRoutingProvider:75 requesting network routing module with routingMode=car;	mode=car
2020-02-14 13:24:18,665 DEBUG NetworkRoutingProvider:75 requesting network routing module with routingMode=car;	mode=car
2020-02-14 13:24:18,669 DEBUG NetworkRoutingProvider:75 requesting network routing module with routingMode=car;	mode=car
2020-02-14 13:24:18,675 DEBUG NetworkRoutingProvider:75 requesting network routing module with routingMode=car;	mode=car
2020-02-14 13:24:18,679 DEBUG NetworkRoutingProvider:75 requesting network routing module with routingMode=car;	mode=car
2020-02-14 13:24:18,689  INFO Counter:70 [PersonPrepareForSim] handled person # 1
2020-02-14 13:24:18,689  INFO Counter:70 [PersonPrepareForSim] handled person # 2
2020-02-14 13:24:18,689  INFO Counter:70 [PersonPrepareForSim] handled person # 4
2020-02-14 13:24:18,689  INFO Counter:70 [PersonPrepareForSim] handled person # 16
2020-02-14 13:24:18,689  INFO Counter:70 [PersonPrepareForSim] handled person # 8
2020-02-14 13:24:18,690  INFO Counter:70 [PersonPrepareForSim] handled person # 64
2020-02-14 13:24:18,689  INFO Counter:70 [PersonPrepareForSim] handled person # 32
2020-02-14 13:24:18,690  INFO Counter:70 [PersonPrepareForSim] handled person # 128
2020-02-14 13:24:18,690  INFO Counter:70 [PersonPrepareForSim] handled person # 256
2020-02-14 13:24:18,691  INFO Counter:70 [PersonPrepareForSim] handled person # 512
2020-02-14 13:24:18,692  INFO Counter:70 [PersonPrepareForSim] handled person # 1024
2020-02-14 13:24:18,694  INFO Counter:70 [PersonPrepareForSim] handled person # 2048
2020-02-14 13:24:18,697  INFO Counter:70 [PersonPrepareForSim] handled person # 4096
2020-02-14 13:24:18,703  INFO Counter:70 [PersonPrepareForSim] handled person # 8192
2020-02-14 13:24:18,719  INFO Counter:76 [PersonPrepareForSim] handled person # 13749
2020-02-14 13:24:18,927  INFO MobsimListenerManager:49 calling addQueueSimulationListener
2020-02-14 13:24:18,928  INFO MobsimListenerManager:53   assigned class org.matsim.core.mobsim.framework.listeners.MobsimListener to interface org.matsim.core.mobsim.framework.listeners.MobsimListener
2020-02-14 13:24:18,928  INFO MobsimListenerManager:53   assigned class org.matsim.core.mobsim.framework.listeners.MobsimListener to interface org.matsim.core.mobsim.framework.listeners.MobsimAfterSimStepListener
2020-02-14 13:24:18,929  INFO MobsimListenerManager:53   assigned class org.matsim.core.mobsim.framework.listeners.MobsimListener to interface org.matsim.vis.snapshotwriters.SnapshotWriterManager
2020-02-14 13:24:18,929  INFO MobsimListenerManager:53   assigned class org.matsim.core.mobsim.framework.listeners.MobsimListener to interface org.matsim.core.mobsim.framework.listeners.MobsimInitializedListener
2020-02-14 13:24:18,930  INFO MobsimListenerManager:53   assigned class org.matsim.core.mobsim.framework.listeners.MobsimListener to interface org.matsim.core.mobsim.framework.listeners.MobsimBeforeCleanupListener
2020-02-14 13:24:19,446  INFO QSimProvider:111 Added MobsimEngine class org.matsim.core.mobsim.qsim.ActivityEngine
2020-02-14 13:24:19,447  INFO QSimProvider:117 Added Activityhandler class org.matsim.core.mobsim.qsim.ActivityEngine
2020-02-14 13:24:19,447  INFO QSimProvider:123 Added DepartureHandler class org.matsim.core.mobsim.qsim.qnetsimengine.VehicularDepartureHandler
2020-02-14 13:24:19,448  INFO QSimProvider:111 Added MobsimEngine class org.matsim.core.mobsim.qsim.qnetsimengine.QNetsimEngine
2020-02-14 13:24:19,448  INFO QSimProvider:111 Added MobsimEngine class org.matsim.core.mobsim.qsim.DefaultTeleportationEngine
2020-02-14 13:24:19,449  INFO QSimProvider:123 Added DepartureHandler class org.matsim.core.mobsim.qsim.DefaultTeleportationEngine
2020-02-14 13:24:19,449  INFO QSimProvider:129 Added AgentSource class org.matsim.core.mobsim.qsim.agents.PopulationAgentSource
2020-02-14 13:24:19,450  INFO MobsimListenerManager:49 calling addQueueSimulationListener
2020-02-14 13:24:19,450  INFO MobsimListenerManager:53   assigned class org.matsim.core.mobsim.framework.listeners.MobsimListener to interface org.matsim.core.mobsim.framework.listeners.MobsimListener
2020-02-14 13:24:19,450  INFO MobsimListenerManager:53   assigned class org.matsim.core.mobsim.framework.listeners.MobsimListener to interface org.matsim.core.mobsim.qsim.messagequeueengine.MessageQueueEngine
2020-02-14 13:24:19,451  INFO MobsimListenerManager:53   assigned class org.matsim.core.mobsim.framework.listeners.MobsimListener to interface org.matsim.core.mobsim.framework.listeners.MobsimBeforeSimStepListener
2020-02-14 13:24:19,451  INFO QSimProvider:135 Added MobsimListener class org.matsim.core.mobsim.qsim.messagequeueengine.MessageQueueEngine
2020-02-14 13:24:19,745  INFO QNetsimEngine:506 Assigned 1711 nodes and 3193 links to QSimEngineRunner #0
2020-02-14 13:24:19,746  INFO QNetsimEngine:506 Assigned 1711 nodes and 3192 links to QSimEngineRunner #1
2020-02-14 13:24:19,746  INFO QNetsimEngine:506 Assigned 1711 nodes and 3177 links to QSimEngineRunner #2
2020-02-14 13:24:19,746  INFO QNetsimEngine:506 Assigned 1711 nodes and 3237 links to QSimEngineRunner #3
2020-02-14 13:24:19,746  INFO QNetsimEngine:506 Assigned 1710 nodes and 3287 links to QSimEngineRunner #4
2020-02-14 13:24:19,747  INFO QNetsimEngine:506 Assigned 1710 nodes and 3234 links to QSimEngineRunner #5
2020-02-14 13:24:19,747  INFO QNetsimEngine:506 Assigned 1710 nodes and 3227 links to QSimEngineRunner #6
2020-02-14 13:24:19,831  INFO EventsManagerImpl:134  event # 1
2020-02-14 13:24:19,839  INFO EventsManagerImpl:134  event # 4
2020-02-14 13:24:19,842  INFO EventsManagerImpl:134  event # 16
2020-02-14 13:24:19,845  INFO EventsManagerImpl:134  event # 64
2020-02-14 13:24:19,858  INFO EventsManagerImpl:134  event # 256
2020-02-14 13:24:19,899  INFO EventsManagerImpl:134  event # 1024
2020-02-14 13:24:20,005  INFO EventsManagerImpl:134  event # 4096
2020-02-14 13:24:20,176  INFO QNetsimEngine:346 SIMULATION (QNetsimEngine) AT 06:00:00 : #links=838 #nodes=2290
2020-02-14 13:24:20,177  INFO QSim:505 SIMULATION (NEW QSim) AT 06:00:00 : #Veh=13749 lost=0 simT=0.0s realT=1s; (s/r): 0.0
2020-02-14 13:24:20,177  INFO Gbl:58 used RAM: 415482192B = 405744kB = 396MB  free: 411844272B = 392MB  total: 827326464B = 789MB
2020-02-14 13:24:20,312  INFO EventsManagerImpl:134  event # 16384
2020-02-14 13:24:21,646  INFO EventsManagerImpl:134  event # 65536
2020-02-14 13:24:23,941  INFO QNetsimEngine:346 SIMULATION (QNetsimEngine) AT 07:00:00 : #links=524 #nodes=125
2020-02-14 13:24:23,941  INFO QSim:505 SIMULATION (NEW QSim) AT 07:00:00 : #Veh=13749 lost=0 simT=3600.0s realT=5s; (s/r): 720.0
2020-02-14 13:24:23,942  INFO Gbl:58 used RAM: 584845312B = 571138kB = 557MB  free: 242481152B = 231MB  total: 827326464B = 789MB
2020-02-14 13:24:24,150  INFO EventsManagerImpl:134  event # 262144
2020-02-14 13:24:25,597  INFO QNetsimEngine:346 SIMULATION (QNetsimEngine) AT 08:00:00 : #links=305 #nodes=55
2020-02-14 13:24:25,597  INFO QSim:505 SIMULATION (NEW QSim) AT 08:00:00 : #Veh=13749 lost=0 simT=7200.0s realT=6s; (s/r): 1200.0
2020-02-14 13:24:25,597  INFO Gbl:58 used RAM: 304067376B = 296940kB = 289MB  free: 520637648B = 496MB  total: 824705024B = 786MB
2020-02-14 13:24:26,584  INFO QNetsimEngine:346 SIMULATION (QNetsimEngine) AT 09:00:00 : #links=163 #nodes=32
2020-02-14 13:24:26,585  INFO QSim:505 SIMULATION (NEW QSim) AT 09:00:00 : #Veh=13749 lost=0 simT=10800.0s realT=7s; (s/r): 1542.857142857143
2020-02-14 13:24:26,585  INFO Gbl:58 used RAM: 345769576B = 337665kB = 329MB  free: 478935448B = 456MB  total: 824705024B = 786MB
2020-02-14 13:24:27,453  INFO QNetsimEngine:346 SIMULATION (QNetsimEngine) AT 10:00:00 : #links=112 #nodes=20
2020-02-14 13:24:27,454  INFO QSim:505 SIMULATION (NEW QSim) AT 10:00:00 : #Veh=13749 lost=0 simT=14400.0s realT=8s; (s/r): 1800.0
2020-02-14 13:24:27,454  INFO Gbl:58 used RAM: 379675080B = 370776kB = 362MB  free: 445029944B = 424MB  total: 824705024B = 786MB
2020-02-14 13:24:28,365  INFO QNetsimEngine:346 SIMULATION (QNetsimEngine) AT 11:00:00 : #links=376 #nodes=1289
2020-02-14 13:24:28,366  INFO QSim:505 SIMULATION (NEW QSim) AT 11:00:00 : #Veh=13749 lost=0 simT=18000.0s realT=9s; (s/r): 2000.0
2020-02-14 13:24:28,366  INFO Gbl:58 used RAM: 413597760B = 403904kB = 394MB  free: 411107264B = 392MB  total: 824705024B = 786MB
2020-02-14 13:24:30,569  INFO QNetsimEngine:346 SIMULATION (QNetsimEngine) AT 12:00:00 : #links=142 #nodes=26
2020-02-14 13:24:30,569  INFO QSim:505 SIMULATION (NEW QSim) AT 12:00:00 : #Veh=13749 lost=0 simT=21600.0s realT=11s; (s/r): 1963.6363636363637
2020-02-14 13:24:30,569  INFO Gbl:58 used RAM: 520117504B = 507927kB = 496MB  free: 304587520B = 290MB  total: 824705024B = 786MB
2020-02-14 13:24:32,865  INFO QNetsimEngine:346 SIMULATION (QNetsimEngine) AT 13:00:00 : #links=265 #nodes=39
2020-02-14 13:24:32,865  INFO QSim:505 SIMULATION (NEW QSim) AT 13:00:00 : #Veh=9585 lost=0 simT=25200.0s realT=13s; (s/r): 1938.4615384615386
2020-02-14 13:24:32,866  INFO Gbl:58 used RAM: 609613608B = 595325kB = 581MB  free: 215091416B = 205MB  total: 824705024B = 786MB
2020-02-14 13:24:34,098  INFO QNetsimEngine:346 SIMULATION (QNetsimEngine) AT 14:00:00 : #links=77 #nodes=20
2020-02-14 13:24:34,099  INFO QSim:505 SIMULATION (NEW QSim) AT 14:00:00 : #Veh=7449 lost=0 simT=28800.0s realT=15s; (s/r): 1920.0
2020-02-14 13:24:34,099  INFO Gbl:58 used RAM: 644324680B = 629223kB = 614MB  free: 180380344B = 172MB  total: 824705024B = 786MB
2020-02-14 13:24:36,454  INFO QNetsimEngine:346 SIMULATION (QNetsimEngine) AT 15:00:00 : #links=828 #nodes=156
2020-02-14 13:24:36,455  INFO QSim:505 SIMULATION (NEW QSim) AT 15:00:00 : #Veh=7313 lost=0 simT=32400.0s realT=17s; (s/r): 1905.8823529411766
2020-02-14 13:24:36,455  INFO Gbl:58 used RAM: 350954176B = 342728kB = 334MB  free: 530898240B = 506MB  total: 881852416B = 841MB
2020-02-14 13:24:37,209  INFO EventsManagerImpl:134  event # 1048576
2020-02-14 13:24:38,401  INFO QNetsimEngine:346 SIMULATION (QNetsimEngine) AT 16:00:00 : #links=821 #nodes=1663
2020-02-14 13:24:38,402  INFO QSim:505 SIMULATION (NEW QSim) AT 16:00:00 : #Veh=7224 lost=0 simT=36000.0s realT=19s; (s/r): 1894.7368421052631
2020-02-14 13:24:38,402  INFO Gbl:58 used RAM: 438963752B = 428675kB = 418MB  free: 442888664B = 422MB  total: 881852416B = 841MB
2020-02-14 13:24:41,523  INFO QNetsimEngine:346 SIMULATION (QNetsimEngine) AT 17:00:00 : #links=460 #nodes=62
2020-02-14 13:24:41,523  INFO QSim:505 SIMULATION (NEW QSim) AT 17:00:00 : #Veh=6526 lost=0 simT=39600.0s realT=22s; (s/r): 1800.0
2020-02-14 13:24:41,523  INFO Gbl:58 used RAM: 578988392B = 565418kB = 552MB  free: 302864024B = 288MB  total: 881852416B = 841MB
2020-02-14 13:24:43,837  INFO QNetsimEngine:346 SIMULATION (QNetsimEngine) AT 18:00:00 : #links=495 #nodes=58
2020-02-14 13:24:43,837  INFO QSim:505 SIMULATION (NEW QSim) AT 18:00:00 : #Veh=4431 lost=0 simT=43200.0s realT=24s; (s/r): 1800.0
2020-02-14 13:24:43,837  INFO Gbl:58 used RAM: 687424640B = 671313kB = 655MB  free: 194427776B = 185MB  total: 881852416B = 841MB
2020-02-14 13:24:45,235  INFO QNetsimEngine:346 SIMULATION (QNetsimEngine) AT 19:00:00 : #links=266 #nodes=38
2020-02-14 13:24:45,235  INFO QSim:505 SIMULATION (NEW QSim) AT 19:00:00 : #Veh=3335 lost=0 simT=46800.0s realT=26s; (s/r): 1800.0
2020-02-14 13:24:45,235  INFO Gbl:58 used RAM: 294547896B = 287644kB = 280MB  free: 604081736B = 576MB  total: 898629632B = 857MB
2020-02-14 13:24:46,314  INFO QNetsimEngine:346 SIMULATION (QNetsimEngine) AT 20:00:00 : #links=194 #nodes=29
2020-02-14 13:24:46,314  INFO QSim:505 SIMULATION (NEW QSim) AT 20:00:00 : #Veh=2995 lost=0 simT=50400.0s realT=27s; (s/r): 1866.6666666666667
2020-02-14 13:24:46,314  INFO Gbl:58 used RAM: 339222784B = 331272kB = 323MB  free: 559406848B = 533MB  total: 898629632B = 857MB
2020-02-14 13:24:47,324  INFO QNetsimEngine:346 SIMULATION (QNetsimEngine) AT 21:00:00 : #links=188 #nodes=31
2020-02-14 13:24:47,325  INFO QSim:505 SIMULATION (NEW QSim) AT 21:00:00 : #Veh=2774 lost=0 simT=54000.0s realT=28s; (s/r): 1928.5714285714287
2020-02-14 13:24:47,325  INFO Gbl:58 used RAM: 383897728B = 374900kB = 366MB  free: 514731904B = 490MB  total: 898629632B = 857MB
2020-02-14 13:24:48,298  INFO QNetsimEngine:346 SIMULATION (QNetsimEngine) AT 22:00:00 : #links=129 #nodes=23
2020-02-14 13:24:48,298  INFO QSim:505 SIMULATION (NEW QSim) AT 22:00:00 : #Veh=2575 lost=0 simT=57600.0s realT=29s; (s/r): 1986.2068965517242
2020-02-14 13:24:48,299  INFO Gbl:58 used RAM: 419507280B = 409675kB = 400MB  free: 479122352B = 456MB  total: 898629632B = 857MB
2020-02-14 13:24:49,183  INFO QNetsimEngine:346 SIMULATION (QNetsimEngine) AT 23:00:00 : #links=120 #nodes=23
2020-02-14 13:24:49,183  INFO QSim:505 SIMULATION (NEW QSim) AT 23:00:00 : #Veh=2415 lost=0 simT=61200.0s realT=30s; (s/r): 2040.0
2020-02-14 13:24:49,183  INFO Gbl:58 used RAM: 450693544B = 440130kB = 429MB  free: 447936088B = 427MB  total: 898629632B = 857MB
2020-02-14 13:24:50,031  INFO QNetsimEngine:346 SIMULATION (QNetsimEngine) AT 24:00:00 : #links=101 #nodes=18
2020-02-14 13:24:50,031  INFO QSim:505 SIMULATION (NEW QSim) AT 24:00:00 : #Veh=2243 lost=0 simT=64800.0s realT=31s; (s/r): 2090.3225806451615
2020-02-14 13:24:50,031  INFO Gbl:58 used RAM: 481880032B = 470585kB = 459MB  free: 416749600B = 397MB  total: 898629632B = 857MB
2020-02-14 13:24:50,915  INFO QNetsimEngine:346 SIMULATION (QNetsimEngine) AT 25:00:00 : #links=95 #nodes=8
2020-02-14 13:24:50,915  INFO QSim:505 SIMULATION (NEW QSim) AT 25:00:00 : #Veh=2097 lost=0 simT=68400.0s realT=31s; (s/r): 2206.451612903226
2020-02-14 13:24:50,915  INFO Gbl:58 used RAM: 515171040B = 503096kB = 491MB  free: 383458592B = 365MB  total: 898629632B = 857MB
2020-02-14 13:24:51,785  INFO QNetsimEngine:346 SIMULATION (QNetsimEngine) AT 26:00:00 : #links=90 #nodes=11
2020-02-14 13:24:51,785  INFO QSim:505 SIMULATION (NEW QSim) AT 26:00:00 : #Veh=1974 lost=0 simT=72000.0s realT=32s; (s/r): 2250.0
2020-02-14 13:24:51,785  INFO Gbl:58 used RAM: 543698728B = 530955kB = 518MB  free: 354930904B = 338MB  total: 898629632B = 857MB
2020-02-14 13:24:52,656  INFO QNetsimEngine:346 SIMULATION (QNetsimEngine) AT 27:00:00 : #links=78 #nodes=8
2020-02-14 13:24:52,657  INFO QSim:505 SIMULATION (NEW QSim) AT 27:00:00 : #Veh=1853 lost=0 simT=75600.0s realT=33s; (s/r): 2290.909090909091
2020-02-14 13:24:52,657  INFO Gbl:58 used RAM: 568478704B = 555154kB = 542MB  free: 330150928B = 314MB  total: 898629632B = 857MB
2020-02-14 13:24:53,405  INFO QNetsimEngine:346 SIMULATION (QNetsimEngine) AT 28:00:00 : #links=69 #nodes=10
2020-02-14 13:24:53,405  INFO QSim:505 SIMULATION (NEW QSim) AT 28:00:00 : #Veh=1742 lost=0 simT=79200.0s realT=34s; (s/r): 2329.4117647058824
2020-02-14 13:24:53,405  INFO Gbl:58 used RAM: 593245872B = 579341kB = 565MB  free: 305383760B = 291MB  total: 898629632B = 857MB
2020-02-14 13:24:54,118  INFO QNetsimEngine:346 SIMULATION (QNetsimEngine) AT 29:00:00 : #links=56 #nodes=6
2020-02-14 13:24:54,119  INFO QSim:505 SIMULATION (NEW QSim) AT 29:00:00 : #Veh=1621 lost=0 simT=82800.0s realT=35s; (s/r): 2365.714285714286
2020-02-14 13:24:54,119  INFO Gbl:58 used RAM: 617362760B = 602893kB = 588MB  free: 281266872B = 268MB  total: 898629632B = 857MB
2020-02-14 13:24:54,782  INFO QNetsimEngine:346 SIMULATION (QNetsimEngine) AT 30:00:00 : #links=50 #nodes=3
2020-02-14 13:24:54,783  INFO QSim:505 SIMULATION (NEW QSim) AT 30:00:00 : #Veh=1548 lost=0 simT=86400.0s realT=35s; (s/r): 2468.5714285714284
2020-02-14 13:24:54,783  INFO Gbl:58 used RAM: 639483616B = 624495kB = 609MB  free: 259146016B = 247MB  total: 898629632B = 857MB
2020-02-14 13:24:54,861  INFO Gbl:191 Thread performance: Thread=class org.matsim.core.events.SimStepParallelEventsManagerImpl$ProcessEventsRunnable0  cpu-time=23.21875sec
2020-02-14 13:24:54,862  INFO AbstractController$9:220 ### ITERATION 0 fires after mobsim event
2020-02-14 13:24:54,862  INFO ControlerListenerManagerImpl:248 calling notifyAfterMobsim on org.matsim.analysis.LegTimesControlerListener
2020-02-14 13:24:54,900  INFO LegTimesControlerListener:50 [0] average trip (probably: leg) duration is: 4831 seconds = 01:20:31
2020-02-14 13:24:54,901  INFO ControlerListenerManagerImpl:248 calling notifyAfterMobsim on org.matsim.core.scoring.EventsToActivities$1
2020-02-14 13:24:54,957  INFO ControlerListenerManagerImpl:251 [it.0] all ControlerAfterMobsimListeners called.
2020-02-14 13:24:54,958  INFO AbstractController$4:149 ### ITERATION 0 fires scoring event
2020-02-14 13:24:54,958  INFO ControlerListenerManagerImpl:183 calling notifyScoring on org.matsim.core.scoring.PlansScoringImpl
2020-02-14 13:24:54,985  INFO NewScoreAssignerImpl:36 it: 0 msaStart: null
2020-02-14 13:24:55,005  INFO ControlerListenerManagerImpl:194 [it.0] all ControlerScoringListeners called.
2020-02-14 13:24:55,007  INFO AbstractController$5:157 ### ITERATION 0 fires iteration end event
2020-02-14 13:24:55,007  INFO ControlerListenerManagerImpl:160 calling notifyIterationEnds on org.matsim.core.controler.corelisteners.EventsHandlingImpl
2020-02-14 13:24:55,026  INFO EventsManagerImpl:161 removing Event-Handler: org.matsim.core.events.algorithms.EventWriterXML
2020-02-14 13:24:55,026  INFO EventsManagerImpl:161 removing Event-Handler: org.matsim.core.events.algorithms.EventWriterXML
2020-02-14 13:24:55,027  INFO ControlerListenerManagerImpl:160 calling notifyIterationEnds on org.matsim.core.scoring.PlansScoringImpl
2020-02-14 13:24:55,042  INFO ControlerListenerManagerImpl:167 calling notifyIterationEnds on org.matsim.counts.CountsControlerListener
2020-02-14 13:24:55,042  INFO ControlerListenerManagerImpl:167 calling notifyIterationEnds on org.matsim.analysis.ModeStatsControlerListener
2020-02-14 13:24:55,101  INFO ModeStatsControlerListener:155 -- mode share of mode bike = 0.05480158934929563
2020-02-14 13:24:55,102  INFO ModeStatsControlerListener:155 -- mode share of mode car = 0.5112234893441354
2020-02-14 13:24:55,102  INFO ModeStatsControlerListener:155 -- mode share of mode other = 0.0
2020-02-14 13:24:55,102  INFO ModeStatsControlerListener:155 -- mode share of mode pt = 0.17410599102120852
2020-02-14 13:24:55,102  INFO ModeStatsControlerListener:155 -- mode share of mode ride = 0.0
2020-02-14 13:24:55,103  INFO ModeStatsControlerListener:155 -- mode share of mode walk = 0.25986893028536046
2020-02-14 13:24:55,103  INFO ControlerListenerManagerImpl:167 calling notifyIterationEnds on org.matsim.analysis.ScoreStatsControlerListener
2020-02-14 13:24:55,117  INFO ScoreStatsControlerListener:191 -- avg. score of the executed plan of each agent: 84.74120179994632
2020-02-14 13:24:55,117  INFO ScoreStatsControlerListener:192 -- avg. score of the worst plan of each agent: 84.74120179994632
2020-02-14 13:24:55,117  INFO ScoreStatsControlerListener:193 -- avg. of the avg. plan score per agent: 84.74120179994632
2020-02-14 13:24:55,117  INFO ScoreStatsControlerListener:194 -- avg. score of the best plan of each agent: 84.74120179994632
2020-02-14 13:24:55,118  INFO ControlerListenerManagerImpl:167 calling notifyIterationEnds on org.matsim.analysis.TravelDistanceStatsControlerListener
2020-02-14 13:24:55,123  INFO TravelDistanceStats:128 [TravelDistanceStats] using 7 thread(s).
2020-02-14 13:24:55,145  INFO TravelDistanceStats:141 [TravelDistanceStats] all threads finished.
2020-02-14 13:24:55,146  INFO TravelDistanceStats:161 -- average of the average leg distance per plan (executed plans only): 8456.51876774019
2020-02-14 13:24:55,146  INFO TravelDistanceStats:162 (TravelDistanceStats takes an average over all legs where the simulation reports travelled distances. These are car legs, pt legs,
2020-02-14 13:24:55,146  INFO TravelDistanceStats:163 (and teleported legs whose route contains a distance.)
2020-02-14 13:24:55,146  INFO ControlerListenerManagerImpl:167 calling notifyIterationEnds on org.matsim.analysis.LegHistogramListener
2020-02-14 13:24:55,171  INFO LegHistogramListener:72 number of legs:	36822	100%
2020-02-14 13:24:55,172  INFO LegHistogramListener:79 number of bike legs:	2107	5.722122644071479%
2020-02-14 13:24:55,172  INFO LegHistogramListener:79 number of car legs:	18145	49.27760577915377%
2020-02-14 13:24:55,172  INFO LegHistogramListener:79 number of pt legs:	6654	18.070718592146%
2020-02-14 13:24:55,172  INFO LegHistogramListener:79 number of walk legs:	9916	26.929552984628753%
2020-02-14 13:24:58,149  INFO ControlerListenerManagerImpl:167 calling notifyIterationEnds on org.matsim.analysis.LinkStatsControlerListener
2020-02-14 13:24:58,150  INFO ControlerListenerManagerImpl:171 [it.0] all ControlerIterationEndsListeners called.
2020-02-14 13:24:58,653  INFO AbstractController:167 ### ITERATION 0 ENDS
2020-02-14 13:24:58,654  INFO AbstractController:168 ###################################################
2020-02-14 13:24:58,654  INFO AbstractController:123 ###################################################
2020-02-14 13:24:58,654  INFO AbstractController:124 ### ITERATION 1 BEGINS
2020-02-14 13:24:58,655  INFO ControlerListenerManagerImpl:145 calling notifyIterationStarts on org.matsim.analysis.LegHistogramListener
2020-02-14 13:24:58,655  INFO ControlerListenerManagerImpl:145 calling notifyIterationStarts on org.matsim.analysis.LinkStatsControlerListener
2020-02-14 13:24:58,655  INFO ControlerListenerManagerImpl:145 calling notifyIterationStarts on org.matsim.core.replanning.ReplanningContextImpl
2020-02-14 13:24:58,656  INFO ControlerListenerManagerImpl:145 calling notifyIterationStarts on org.matsim.core.scoring.ExperiencedPlansServiceImpl$1
2020-02-14 13:24:58,669  INFO ControlerListenerManagerImpl:145 calling notifyIterationStarts on org.matsim.core.scoring.ScoringFunctionsForPopulation$1
2020-02-14 13:24:58,705  INFO ControlerListenerManagerImpl:148 [it.1] all ControlerIterationStartsListeners called.
2020-02-14 13:24:58,706  INFO ControlerListenerManagerImpl:205 calling notifyReplanning on org.matsim.core.controler.corelisteners.PlansReplanningImpl
2020-02-14 13:24:58,707 DEBUG NetworkRoutingProvider:75 requesting network routing module with routingMode=car;	mode=car
2020-02-14 13:24:58,708 DEBUG NetworkRoutingProvider:75 requesting network routing module with routingMode=car;	mode=car
2020-02-14 13:24:58,709 DEBUG NetworkRoutingProvider:75 requesting network routing module with routingMode=car;	mode=car
2020-02-14 13:24:58,710 DEBUG NetworkRoutingProvider:75 requesting network routing module with routingMode=car;	mode=car
2020-02-14 13:24:58,710 DEBUG NetworkRoutingProvider:75 requesting network routing module with routingMode=car;	mode=car
2020-02-14 13:24:58,711 DEBUG NetworkRoutingProvider:75 requesting network routing module with routingMode=car;	mode=car
2020-02-14 13:24:58,712 DEBUG NetworkRoutingProvider:75 requesting network routing module with routingMode=car;	mode=car
2020-02-14 13:24:58,758  INFO GenericPlanStrategyImpl:125 Plan-Strategy finished, 12341 plans handled. Strategy: KeepSelected
2020-02-14 13:24:58,758  INFO AbstractMultithreadedModule:141 [PlanRouter] starting 7 threads, handling 1408 plans
2020-02-14 13:24:58,764  INFO Counter:70 [PlanRouter] handled plan # 1
2020-02-14 13:24:58,765  INFO Counter:70 [PlanRouter] handled plan # 2
2020-02-14 13:24:58,766  INFO Counter:70 [PlanRouter] handled plan # 4
2020-02-14 13:24:58,770  INFO Counter:70 [PlanRouter] handled plan # 8
2020-02-14 13:24:58,774  INFO Counter:70 [PlanRouter] handled plan # 16
2020-02-14 13:24:58,980  INFO Counter:70 [PlanRouter] handled plan # 32
2020-02-14 13:24:59,084  INFO Counter:70 [PlanRouter] handled plan # 64
2020-02-14 13:24:59,269  INFO Counter:70 [PlanRouter] handled plan # 128
2020-02-14 13:24:59,484  INFO Counter:70 [PlanRouter] handled plan # 256
2020-02-14 13:24:59,950  INFO Counter:70 [PlanRouter] handled plan # 512
2020-02-14 13:25:00,756  INFO Counter:70 [PlanRouter] handled plan # 1024
2020-02-14 13:25:01,301  INFO AbstractMultithreadedModule:156 [PlanRouter] all 7 threads finished.
2020-02-14 13:25:01,302  INFO GenericPlanStrategyImpl:125 Plan-Strategy finished, 1408 plans handled. Strategy: RandomPlanSelector_ReRoute
2020-02-14 13:25:01,302  INFO ControlerListenerManagerImpl:213 [it.1] all ControlerReplanningListeners called.
2020-02-14 13:25:01,302  INFO ControlerListenerManagerImpl:224 calling notifyBeforeMobsim on org.matsim.core.controler.corelisteners.EventsHandlingImpl
2020-02-14 13:25:01,303  INFO EventsManagerImpl:170 resetting Event-Handlers
2020-02-14 13:25:01,303  INFO EventsManagerImpl:177   org.matsim.core.trafficmonitoring.TravelTimeCalculator
2020-02-14 13:25:01,324  INFO EventsManagerImpl:177   org.matsim.core.scoring.EventsToLegsAndActivities
2020-02-14 13:25:01,326  INFO EventsManagerImpl:177   org.matsim.analysis.VolumesAnalyzer
2020-02-14 13:25:01,327  INFO EventsManagerImpl:177   org.matsim.core.events.algorithms.Vehicle2DriverEventHandler
2020-02-14 13:25:01,328  INFO EventsManagerImpl:177   org.matsim.core.scoring.ScoringFunctionsForPopulation
2020-02-14 13:25:01,328  INFO EventsManagerImpl:177   org.matsim.analysis.LegHistogram
2020-02-14 13:25:01,329  INFO EventsManagerImpl:177   org.matsim.analysis.CalcLegTimes
2020-02-14 13:25:01,329  INFO ControlerListenerManagerImpl:224 calling notifyBeforeMobsim on org.matsim.core.controler.corelisteners.PlansDumpingImpl
2020-02-14 13:25:01,329  INFO PlansDumpingImpl:76 dumping plans...
2020-02-14 13:25:01,350  INFO Counter:70 [PopulationWriter] dumped person # 1
2020-02-14 13:25:01,350  INFO Counter:70 [PopulationWriter] dumped person # 2
2020-02-14 13:25:01,351  INFO Counter:70 [PopulationWriter] dumped person # 4
2020-02-14 13:25:01,352  INFO Counter:70 [PopulationWriter] dumped person # 8
2020-02-14 13:25:01,353  INFO Counter:70 [PopulationWriter] dumped person # 16
2020-02-14 13:25:01,359  INFO Counter:70 [PopulationWriter] dumped person # 32
2020-02-14 13:25:01,368  INFO Counter:70 [PopulationWriter] dumped person # 64
2020-02-14 13:25:01,382  INFO Counter:70 [PopulationWriter] dumped person # 128
2020-02-14 13:25:01,410  INFO Counter:70 [PopulationWriter] dumped person # 256
2020-02-14 13:25:01,480  INFO Counter:70 [PopulationWriter] dumped person # 512
2020-02-14 13:25:01,635  INFO Counter:70 [PopulationWriter] dumped person # 1024
2020-02-14 13:25:01,968  INFO Counter:70 [PopulationWriter] dumped person # 2048
2020-02-14 13:25:02,443  INFO Counter:70 [PopulationWriter] dumped person # 4096
2020-02-14 13:25:03,425  INFO Counter:70 [PopulationWriter] dumped person # 8192
2020-02-14 13:25:04,516  INFO PopulationWriter:139 Population written to: ../output/ITERS/it.1/1.plans.xml.gz
2020-02-14 13:25:04,527  INFO Counter:76 [PopulationWriter] dumped person # 13749
2020-02-14 13:25:04,527  INFO PlansDumpingImpl:93 finished plans dump.
2020-02-14 13:25:04,528  INFO ControlerListenerManagerImpl:229 calling notifyBeforeMobsim on org.matsim.core.population.VspPlansCleaner
2020-02-14 13:25:04,547  INFO ControlerListenerManagerImpl:232 [it.1] all ControlerBeforeMobsimListeners called.
2020-02-14 13:25:04,552 DEBUG NetworkRoutingProvider:75 requesting network routing module with routingMode=car;	mode=car
2020-02-14 13:25:04,558 DEBUG NetworkRoutingProvider:75 requesting network routing module with routingMode=car;	mode=car
2020-02-14 13:25:04,562 DEBUG NetworkRoutingProvider:75 requesting network routing module with routingMode=car;	mode=car
2020-02-14 13:25:04,567 DEBUG NetworkRoutingProvider:75 requesting network routing module with routingMode=car;	mode=car
2020-02-14 13:25:04,572 DEBUG NetworkRoutingProvider:75 requesting network routing module with routingMode=car;	mode=car
2020-02-14 13:25:04,577 DEBUG NetworkRoutingProvider:75 requesting network routing module with routingMode=car;	mode=car
2020-02-14 13:25:04,583 DEBUG NetworkRoutingProvider:75 requesting network routing module with routingMode=car;	mode=car
2020-02-14 13:25:04,593  INFO Counter:70 [PersonPrepareForSim] handled person # 1
2020-02-14 13:25:04,593  INFO Counter:70 [PersonPrepareForSim] handled person # 2
2020-02-14 13:25:04,593  INFO Counter:70 [PersonPrepareForSim] handled person # 4
2020-02-14 13:25:04,594  INFO Counter:70 [PersonPrepareForSim] handled person # 16
2020-02-14 13:25:04,594  INFO Counter:70 [PersonPrepareForSim] handled person # 8
2020-02-14 13:25:04,594  INFO Counter:70 [PersonPrepareForSim] handled person # 64
2020-02-14 13:25:04,594  INFO Counter:70 [PersonPrepareForSim] handled person # 32
2020-02-14 13:25:04,594  INFO Counter:70 [PersonPrepareForSim] handled person # 256
2020-02-14 13:25:04,594  INFO Counter:70 [PersonPrepareForSim] handled person # 128
2020-02-14 13:25:04,595  INFO Counter:70 [PersonPrepareForSim] handled person # 512
2020-02-14 13:25:04,595  INFO Counter:70 [PersonPrepareForSim] handled person # 2048
2020-02-14 13:25:04,596  INFO Counter:70 [PersonPrepareForSim] handled person # 4096
2020-02-14 13:25:04,598  INFO Counter:70 [PersonPrepareForSim] handled person # 8192
2020-02-14 13:25:04,595  INFO Counter:70 [PersonPrepareForSim] handled person # 1024
2020-02-14 13:25:04,605  INFO Counter:76 [PersonPrepareForSim] handled person # 13749
2020-02-14 13:25:04,655  INFO MobsimListenerManager:49 calling addQueueSimulationListener
[...]
2020-02-14 13:30:15,452  INFO QSim:505 SIMULATION (NEW QSim) AT 10:00:00 : #Veh=13749 lost=0 simT=14400.0s realT=9s; (s/r): 1600.0
2020-02-14 13:30:15,452  INFO Gbl:58 used RAM: 687556800B = 671442kB = 655MB  free: 492091200B = 469MB  total: 1179648000B = 1125MB
2020-02-14 13:30:16,326  INFO QNetsimEngine:346 SIMULATION (QNetsimEngine) AT 11:00:00 : #links=346 #nodes=1262
2020-02-14 13:30:16,327  INFO QSim:505 SIMULATION (NEW QSim) AT 11:00:00 : #Veh=13749 lost=0 simT=18000.0s realT=10s; (s/r): 1800.0
2020-02-14 13:30:16,327  INFO Gbl:58 used RAM: 719081160B = 702227kB = 685MB  free: 460566840B = 439MB  total: 1179648000B = 1125MB
2020-02-14 13:30:18,615  INFO QNetsimEngine:346 SIMULATION (QNetsimEngine) AT 12:00:00 : #links=150 #nodes=25
2020-02-14 13:30:18,615  INFO QSim:505 SIMULATION (NEW QSim) AT 12:00:00 : #Veh=13749 lost=0 simT=21600.0s realT=12s; (s/r): 1800.0
2020-02-14 13:30:18,615  INFO Gbl:58 used RAM: 854627200B = 834596kB = 815MB  free: 325020800B = 309MB  total: 1179648000B = 1125MB
2020-02-14 13:30:20,691  INFO QNetsimEngine:346 SIMULATION (QNetsimEngine) AT 13:00:00 : #links=424 #nodes=53
2020-02-14 13:30:20,692  INFO QSim:505 SIMULATION (NEW QSim) AT 13:00:00 : #Veh=9436 lost=0 simT=25200.0s realT=14s; (s/r): 1800.0
2020-02-14 13:30:20,692  INFO Gbl:58 used RAM: 967862720B = 945178kB = 923MB  free: 211785280B = 201MB  total: 1179648000B = 1125MB
2020-02-14 13:30:21,846  INFO QNetsimEngine:346 SIMULATION (QNetsimEngine) AT 14:00:00 : #links=56 #nodes=5
2020-02-14 13:30:21,846  INFO QSim:505 SIMULATION (NEW QSim) AT 14:00:00 : #Veh=7046 lost=0 simT=28800.0s realT=15s; (s/r): 1920.0
2020-02-14 13:30:21,846  INFO Gbl:58 used RAM: 1013209488B = 989462kB = 966MB  free: 166438512B = 158MB  total: 1179648000B = 1125MB
2020-02-14 13:30:24,373  INFO QNetsimEngine:346 SIMULATION (QNetsimEngine) AT 15:00:00 : #links=1285 #nodes=212
2020-02-14 13:30:24,374  INFO QSim:505 SIMULATION (NEW QSim) AT 15:00:00 : #Veh=6920 lost=0 simT=32400.0s realT=18s; (s/r): 1800.0
2020-02-14 13:30:24,374  INFO Gbl:58 used RAM: 486595712B = 475191kB = 464MB  free: 695673728B = 663MB  total: 1182269440B = 1127MB
2020-02-14 13:30:26,918  INFO QNetsimEngine:346 SIMULATION (QNetsimEngine) AT 16:00:00 : #links=1299 #nodes=1789
2020-02-14 13:30:26,918  INFO QSim:505 SIMULATION (NEW QSim) AT 16:00:00 : #Veh=6874 lost=0 simT=36000.0s realT=20s; (s/r): 1800.0
2020-02-14 13:30:26,918  INFO Gbl:58 used RAM: 630556440B = 615777kB = 601MB  free: 551713000B = 526MB  total: 1182269440B = 1127MB
2020-02-14 13:30:30,915  INFO QNetsimEngine:346 SIMULATION (QNetsimEngine) AT 17:00:00 : #links=951 #nodes=112
2020-02-14 13:30:30,915  INFO QSim:505 SIMULATION (NEW QSim) AT 17:00:00 : #Veh=6168 lost=0 simT=39600.0s realT=24s; (s/r): 1650.0
2020-02-14 13:30:30,915  INFO Gbl:58 used RAM: 856030896B = 835967kB = 816MB  free: 326238544B = 311MB  total: 1182269440B = 1127MB
2020-02-14 13:30:34,276  INFO QNetsimEngine:346 SIMULATION (QNetsimEngine) AT 18:00:00 : #links=1049 #nodes=129
2020-02-14 13:30:34,277  INFO QSim:505 SIMULATION (NEW QSim) AT 18:00:00 : #Veh=3647 lost=0 simT=43200.0s realT=28s; (s/r): 1542.857142857143
2020-02-14 13:30:34,277  INFO Gbl:58 used RAM: 1044500488B = 1020020kB = 996MB  free: 137768952B = 131MB  total: 1182269440B = 1127MB
2020-02-14 13:30:36,632  INFO QNetsimEngine:346 SIMULATION (QNetsimEngine) AT 19:00:00 : #links=562 #nodes=52
2020-02-14 13:30:36,632  INFO QSim:505 SIMULATION (NEW QSim) AT 19:00:00 : #Veh=2018 lost=0 simT=46800.0s realT=30s; (s/r): 1560.0
2020-02-14 13:30:36,632  INFO Gbl:58 used RAM: 468176848B = 457203kB = 446MB  free: 716189744B = 683MB  total: 1184366592B = 1129MB
2020-02-14 13:30:38,321  INFO QNetsimEngine:346 SIMULATION (QNetsimEngine) AT 20:00:00 : #links=388 #nodes=37
2020-02-14 13:30:38,321  INFO QSim:505 SIMULATION (NEW QSim) AT 20:00:00 : #Veh=1359 lost=0 simT=50400.0s realT=32s; (s/r): 1575.0
2020-02-14 13:30:38,321  INFO Gbl:58 used RAM: 561305392B = 548149kB = 535MB  free: 623061200B = 594MB  total: 1184366592B = 1129MB
2020-02-14 13:30:39,587  INFO QNetsimEngine:346 SIMULATION (QNetsimEngine) AT 21:00:00 : #links=204 #nodes=25
2020-02-14 13:30:39,587  INFO QSim:505 SIMULATION (NEW QSim) AT 21:00:00 : #Veh=878 lost=0 simT=54000.0s realT=33s; (s/r): 1636.3636363636363
2020-02-14 13:30:39,587  INFO Gbl:58 used RAM: 619169024B = 604657kB = 590MB  free: 565197568B = 539MB  total: 1184366592B = 1129MB
2020-02-14 13:30:40,607  INFO QNetsimEngine:346 SIMULATION (QNetsimEngine) AT 22:00:00 : #links=136 #nodes=17
2020-02-14 13:30:40,607  INFO QSim:505 SIMULATION (NEW QSim) AT 22:00:00 : #Veh=553 lost=0 simT=57600.0s realT=34s; (s/r): 1694.1176470588234
2020-02-14 13:30:40,607  INFO Gbl:58 used RAM: 665754640B = 650151kB = 634MB  free: 518611952B = 494MB  total: 1184366592B = 1129MB
2020-02-14 13:30:41,477  INFO QNetsimEngine:346 SIMULATION (QNetsimEngine) AT 23:00:00 : #links=69 #nodes=13
2020-02-14 13:30:41,478  INFO QSim:505 SIMULATION (NEW QSim) AT 23:00:00 : #Veh=314 lost=0 simT=61200.0s realT=35s; (s/r): 1748.5714285714287
2020-02-14 13:30:41,478  INFO Gbl:58 used RAM: 696407664B = 680085kB = 664MB  free: 487958928B = 465MB  total: 1184366592B = 1129MB
2020-02-14 13:30:42,148  INFO QNetsimEngine:346 SIMULATION (QNetsimEngine) AT 24:00:00 : #links=26 #nodes=4
2020-02-14 13:30:42,148  INFO QSim:505 SIMULATION (NEW QSim) AT 24:00:00 : #Veh=186 lost=0 simT=64800.0s realT=36s; (s/r): 1800.0
2020-02-14 13:30:42,149  INFO Gbl:58 used RAM: 718265496B = 701431kB = 684MB  free: 466101096B = 444MB  total: 1184366592B = 1129MB
2020-02-14 13:30:42,705  INFO QNetsimEngine:346 SIMULATION (QNetsimEngine) AT 25:00:00 : #links=18 #nodes=3
2020-02-14 13:30:42,706  INFO QSim:505 SIMULATION (NEW QSim) AT 25:00:00 : #Veh=128 lost=0 simT=68400.0s realT=36s; (s/r): 1900.0
2020-02-14 13:30:42,706  INFO Gbl:58 used RAM: 725404392B = 708402kB = 691MB  free: 458962200B = 437MB  total: 1184366592B = 1129MB
2020-02-14 13:30:43,224  INFO QNetsimEngine:346 SIMULATION (QNetsimEngine) AT 26:00:00 : #links=16 #nodes=0
2020-02-14 13:30:43,224  INFO QSim:505 SIMULATION (NEW QSim) AT 26:00:00 : #Veh=99 lost=0 simT=72000.0s realT=37s; (s/r): 1945.945945945946
2020-02-14 13:30:43,224  INFO Gbl:58 used RAM: 736670184B = 719404kB = 702MB  free: 447696408B = 426MB  total: 1184366592B = 1129MB
2020-02-14 13:30:43,682  INFO QNetsimEngine:346 SIMULATION (QNetsimEngine) AT 27:00:00 : #links=5 #nodes=0
2020-02-14 13:30:43,683  INFO QSim:505 SIMULATION (NEW QSim) AT 27:00:00 : #Veh=75 lost=0 simT=75600.0s realT=37s; (s/r): 2043.2432432432433
2020-02-14 13:30:43,683  INFO Gbl:58 used RAM: 742342536B = 724943kB = 707MB  free: 442024056B = 421MB  total: 1184366592B = 1129MB
2020-02-14 13:30:44,143  INFO QNetsimEngine:346 SIMULATION (QNetsimEngine) AT 28:00:00 : #links=8 #nodes=1
2020-02-14 13:30:44,143  INFO QSim:505 SIMULATION (NEW QSim) AT 28:00:00 : #Veh=65 lost=0 simT=79200.0s realT=38s; (s/r): 2084.2105263157896
2020-02-14 13:30:44,143  INFO Gbl:58 used RAM: 754674496B = 736986kB = 719MB  free: 429692096B = 409MB  total: 1184366592B = 1129MB
2020-02-14 13:30:44,620  INFO QNetsimEngine:346 SIMULATION (QNetsimEngine) AT 29:00:00 : #links=9 #nodes=4
2020-02-14 13:30:44,621  INFO QSim:505 SIMULATION (NEW QSim) AT 29:00:00 : #Veh=56 lost=0 simT=82800.0s realT=38s; (s/r): 2178.9473684210525
2020-02-14 13:30:44,621  INFO Gbl:58 used RAM: 759285320B = 741489kB = 724MB  free: 425081272B = 405MB  total: 1184366592B = 1129MB
2020-02-14 13:30:45,105  INFO QNetsimEngine:346 SIMULATION (QNetsimEngine) AT 30:00:00 : #links=8 #nodes=0
2020-02-14 13:30:45,105  INFO QSim:505 SIMULATION (NEW QSim) AT 30:00:00 : #Veh=40 lost=0 simT=86400.0s realT=39s; (s/r): 2215.3846153846152
2020-02-14 13:30:45,105  INFO Gbl:58 used RAM: 764957912B = 747029kB = 729MB  free: 419408680B = 399MB  total: 1184366592B = 1129MB
2020-02-14 13:30:45,117  INFO Gbl:191 Thread performance: Thread=class org.matsim.core.events.SimStepParallelEventsManagerImpl$ProcessEventsRunnable0  cpu-time=31.046875sec
2020-02-14 13:30:45,117  INFO AbstractController$9:220 ### ITERATION 10 fires after mobsim event
2020-02-14 13:30:45,117  INFO ControlerListenerManagerImpl:248 calling notifyAfterMobsim on org.matsim.analysis.LegTimesControlerListener
2020-02-14 13:30:45,137  INFO LegTimesControlerListener:50 [10] average trip (probably: leg) duration is: 3417 seconds = 00:56:57
2020-02-14 13:30:45,137  INFO ControlerListenerManagerImpl:248 calling notifyAfterMobsim on org.matsim.core.scoring.EventsToActivities$1
2020-02-14 13:30:45,165  INFO ControlerListenerManagerImpl:251 [it.10] all ControlerAfterMobsimListeners called.
2020-02-14 13:30:45,165  INFO AbstractController$4:149 ### ITERATION 10 fires scoring event
2020-02-14 13:30:45,165  INFO ControlerListenerManagerImpl:183 calling notifyScoring on org.matsim.core.scoring.PlansScoringImpl
2020-02-14 13:30:45,179  INFO NewScoreAssignerImpl:36 it: 10 msaStart: null
2020-02-14 13:30:45,189  INFO ControlerListenerManagerImpl:194 [it.10] all ControlerScoringListeners called.
2020-02-14 13:30:45,189  INFO AbstractController$5:157 ### ITERATION 10 fires iteration end event
2020-02-14 13:30:45,190  INFO ControlerListenerManagerImpl:160 calling notifyIterationEnds on org.matsim.core.controler.corelisteners.EventsHandlingImpl
2020-02-14 13:30:45,199  INFO EventsManagerImpl:161 removing Event-Handler: org.matsim.core.events.algorithms.EventWriterXML
2020-02-14 13:30:45,199  INFO EventsManagerImpl:161 removing Event-Handler: org.matsim.core.events.algorithms.EventWriterXML
2020-02-14 13:30:45,200  INFO ControlerListenerManagerImpl:160 calling notifyIterationEnds on org.matsim.core.scoring.PlansScoringImpl
2020-02-14 13:30:45,206  INFO ControlerListenerManagerImpl:167 calling notifyIterationEnds on org.matsim.counts.CountsControlerListener
2020-02-14 13:30:45,218  INFO CountSimComparisonTableWriter:93 Writing CountsSimComparison to ../output/ITERS/it.10/10.countscompare.txt
2020-02-14 13:30:45,238  INFO CountSimComparisonTableWriter:134 Writing 'average weekday traffic volume' to ../output/ITERS/it.10/10.countscompareAWTV.txt
2020-02-14 13:30:45,263  INFO ControlerListenerManagerImpl:167 calling notifyIterationEnds on org.matsim.analysis.ModeStatsControlerListener
2020-02-14 13:30:45,298  INFO ModeStatsControlerListener:155 -- mode share of mode bike = 0.05480158934929563
2020-02-14 13:30:45,298  INFO ModeStatsControlerListener:155 -- mode share of mode car = 0.5112234893441354
2020-02-14 13:30:45,298  INFO ModeStatsControlerListener:155 -- mode share of mode other = 0.0
2020-02-14 13:30:45,298  INFO ModeStatsControlerListener:155 -- mode share of mode pt = 0.17410599102120852
2020-02-14 13:30:45,298  INFO ModeStatsControlerListener:155 -- mode share of mode ride = 0.0
2020-02-14 13:30:45,298  INFO ModeStatsControlerListener:155 -- mode share of mode walk = 0.25986893028536046
2020-02-14 13:30:45,438  INFO ControlerListenerManagerImpl:167 calling notifyIterationEnds on org.matsim.analysis.ScoreStatsControlerListener
2020-02-14 13:30:45,441  INFO ScoreStatsControlerListener:191 -- avg. score of the executed plan of each agent: 154.9703594344375
2020-02-14 13:30:45,442  INFO ScoreStatsControlerListener:192 -- avg. score of the worst plan of each agent: 117.8701897203083
2020-02-14 13:30:45,442  INFO ScoreStatsControlerListener:193 -- avg. of the avg. plan score per agent: 140.48813738952308
2020-02-14 13:30:45,442  INFO ScoreStatsControlerListener:194 -- avg. score of the best plan of each agent: 157.6198323950242
2020-02-14 13:30:45,592  INFO ControlerListenerManagerImpl:167 calling notifyIterationEnds on org.matsim.analysis.TravelDistanceStatsControlerListener
2020-02-14 13:30:45,594  INFO TravelDistanceStats:128 [TravelDistanceStats] using 7 thread(s).
2020-02-14 13:30:45,603  INFO TravelDistanceStats:141 [TravelDistanceStats] all threads finished.
2020-02-14 13:30:45,603  INFO TravelDistanceStats:161 -- average of the average leg distance per plan (executed plans only): 10908.37562843591
2020-02-14 13:30:45,603  INFO TravelDistanceStats:162 (TravelDistanceStats takes an average over all legs where the simulation reports travelled distances. These are car legs, pt legs,
2020-02-14 13:30:45,603  INFO TravelDistanceStats:163 (and teleported legs whose route contains a distance.)
2020-02-14 13:30:45,764  INFO ControlerListenerManagerImpl:167 calling notifyIterationEnds on org.matsim.analysis.LegHistogramListener
2020-02-14 13:30:45,779  INFO LegHistogramListener:72 number of legs:	38743	100%
2020-02-14 13:30:45,779  INFO LegHistogramListener:79 number of bike legs:	2124	5.482280670056526%
2020-02-14 13:30:45,779  INFO LegHistogramListener:79 number of car legs:	19801	51.10858735771623%
2020-02-14 13:30:45,780  INFO LegHistogramListener:79 number of pt legs:	6748	17.417339906563765%
2020-02-14 13:30:45,780  INFO LegHistogramListener:79 number of walk legs:	10070	25.991792065663475%
2020-02-14 13:30:47,193  INFO ControlerListenerManagerImpl:167 calling notifyIterationEnds on org.matsim.analysis.LinkStatsControlerListener
2020-02-14 13:30:50,509  INFO ControlerListenerManagerImpl:171 [it.10] all ControlerIterationEndsListeners called.
2020-02-14 13:30:50,746  INFO AbstractController:167 ### ITERATION 10 ENDS
2020-02-14 13:30:50,746  INFO AbstractController:168 ###################################################
2020-02-14 13:30:50,746  INFO MatsimRuntimeModifications:58 S H U T D O W N   ---   start shutdown.
2020-02-14 13:30:50,746  INFO ControlerListenerManagerImpl:121 calling notifyShutdown on org.matsim.core.controler.corelisteners.EventsHandlingImpl
2020-02-14 13:30:50,747  INFO ControlerListenerManagerImpl:121 calling notifyShutdown on org.matsim.core.controler.corelisteners.DumpDataAtEndImpl
2020-02-14 13:30:50,764  INFO Counter:70 [PopulationWriter] dumped person # 1
2020-02-14 13:30:50,764  INFO Counter:70 [PopulationWriter] dumped person # 2
2020-02-14 13:30:50,765  INFO Counter:70 [PopulationWriter] dumped person # 4
2020-02-14 13:30:50,767  INFO Counter:70 [PopulationWriter] dumped person # 8
2020-02-14 13:30:50,769  INFO Counter:70 [PopulationWriter] dumped person # 16
2020-02-14 13:30:50,775  INFO Counter:70 [PopulationWriter] dumped person # 32
2020-02-14 13:30:50,788  INFO Counter:70 [PopulationWriter] dumped person # 64
2020-02-14 13:30:50,813  INFO Counter:70 [PopulationWriter] dumped person # 128
2020-02-14 13:30:50,873  INFO Counter:70 [PopulationWriter] dumped person # 256
2020-02-14 13:30:51,018  INFO Counter:70 [PopulationWriter] dumped person # 512
2020-02-14 13:30:51,285  INFO Counter:70 [PopulationWriter] dumped person # 1024
2020-02-14 13:30:51,672  INFO Counter:70 [PopulationWriter] dumped person # 2048
2020-02-14 13:30:52,388  INFO Counter:70 [PopulationWriter] dumped person # 4096
2020-02-14 13:30:53,736  INFO Counter:70 [PopulationWriter] dumped person # 8192
2020-02-14 13:30:55,462  INFO PopulationWriter:139 Population written to: ../output/output_plans.xml.gz
2020-02-14 13:30:55,472  INFO Counter:76 [PopulationWriter] dumped person # 13749
2020-02-14 13:30:55,487  INFO NetworkWriter:69 Writing network to file: ../output/output_network.xml.gz...
2020-02-14 13:30:55,966  INFO NetworkWriter:72 done.
2020-02-14 13:30:55,993  INFO Config:572 setting context to [file:/C:/Users/GunnarF/OneDrive%20-%20VTI/My%20Code/git-2018/java/experimental/]
2020-02-14 13:30:56,004  INFO Config:572 setting context to [file:/C:/Users/GunnarF/OneDrive%20-%20VTI/My%20Code/git-2018/java/experimental/]
2020-02-14 13:30:56,014  INFO Config:572 setting context to [file:/C:/Users/GunnarF/OneDrive%20-%20VTI/My%20Code/git-2018/java/experimental/]
2020-02-14 13:30:56,022  INFO Config:572 setting context to [file:/C:/Users/GunnarF/OneDrive%20-%20VTI/My%20Code/git-2018/java/experimental/]
2020-02-14 13:30:56,040  INFO Config:572 setting context to [file:/C:/Users/GunnarF/OneDrive%20-%20VTI/My%20Code/git-2018/java/experimental/]
2020-02-14 13:30:56,049  INFO Config:572 setting context to [file:/C:/Users/GunnarF/OneDrive%20-%20VTI/My%20Code/git-2018/java/experimental/]
2020-02-14 13:30:56,057  INFO Config:572 setting context to [file:/C:/Users/GunnarF/OneDrive%20-%20VTI/My%20Code/git-2018/java/experimental/]
2020-02-14 13:30:56,065  INFO Config:572 setting context to [file:/C:/Users/GunnarF/OneDrive%20-%20VTI/My%20Code/git-2018/java/experimental/]
2020-02-14 13:30:56,073  INFO Config:572 setting context to [file:/C:/Users/GunnarF/OneDrive%20-%20VTI/My%20Code/git-2018/java/experimental/]
2020-02-14 13:30:56,087  INFO Config:572 setting context to [file:/C:/Users/GunnarF/OneDrive%20-%20VTI/My%20Code/git-2018/java/experimental/]
2020-02-14 13:30:56,093  INFO Config:572 setting context to [file:/C:/Users/GunnarF/OneDrive%20-%20VTI/My%20Code/git-2018/java/experimental/]
2020-02-14 13:30:56,101  INFO Config:572 setting context to [file:/C:/Users/GunnarF/OneDrive%20-%20VTI/My%20Code/git-2018/java/experimental/]
2020-02-14 13:30:56,131  INFO Config:572 setting context to [file:/C:/Users/GunnarF/OneDrive%20-%20VTI/My%20Code/git-2018/java/experimental/]
2020-02-14 13:30:56,139  INFO Config:572 setting context to [file:/C:/Users/GunnarF/OneDrive%20-%20VTI/My%20Code/git-2018/java/experimental/]
2020-02-14 13:30:56,147  INFO Config:572 setting context to [file:/C:/Users/GunnarF/OneDrive%20-%20VTI/My%20Code/git-2018/java/experimental/]
2020-02-14 13:30:56,154  INFO Config:572 setting context to [file:/C:/Users/GunnarF/OneDrive%20-%20VTI/My%20Code/git-2018/java/experimental/]
2020-02-14 13:30:56,188  INFO Config:572 setting context to [file:/C:/Users/GunnarF/OneDrive%20-%20VTI/My%20Code/git-2018/java/experimental/]
2020-02-14 13:30:56,195  INFO Config:572 setting context to [file:/C:/Users/GunnarF/OneDrive%20-%20VTI/My%20Code/git-2018/java/experimental/]
2020-02-14 13:30:56,223  INFO Config:572 setting context to [file:/C:/Users/GunnarF/OneDrive%20-%20VTI/My%20Code/git-2018/java/experimental/]
2020-02-14 13:30:56,229  INFO Config:572 setting context to [file:/C:/Users/GunnarF/OneDrive%20-%20VTI/My%20Code/git-2018/java/experimental/]
2020-02-14 13:30:56,237  INFO Config:572 setting context to [file:/C:/Users/GunnarF/OneDrive%20-%20VTI/My%20Code/git-2018/java/experimental/]
2020-02-14 13:30:56,241  INFO Config:572 setting context to [file:/C:/Users/GunnarF/OneDrive%20-%20VTI/My%20Code/git-2018/java/experimental/]
2020-02-14 13:30:56,248  INFO Config:572 setting context to [file:/C:/Users/GunnarF/OneDrive%20-%20VTI/My%20Code/git-2018/java/experimental/]
2020-02-14 13:30:56,257  INFO Config:572 setting context to [file:/C:/Users/GunnarF/OneDrive%20-%20VTI/My%20Code/git-2018/java/experimental/]
2020-02-14 13:30:56,324  INFO VehicleWriterV1:52 about to write vehicles to: ../output/output_vehicles.xml.gz
2020-02-14 13:30:56,443  INFO HouseholdsWriterV10:66 about to write  households to: ../output/output_households.xml.gz
2020-02-14 13:30:56,445  INFO Counter:76 [HouseholdsWriter] wrote household # 0
2020-02-14 13:30:56,468  INFO LanesWriter:72 about to write lanes to: ../output/output_lanes.xml.gz
2020-02-14 13:30:56,883  INFO ControlerListenerManagerImpl:126 calling notifyShutdown on org.matsim.analysis.ModeStatsControlerListener
2020-02-14 13:30:56,891  INFO ControlerListenerManagerImpl:126 calling notifyShutdown on org.matsim.analysis.ScoreStatsControlerListener
2020-02-14 13:30:56,900  INFO ControlerListenerManagerImpl:126 calling notifyShutdown on org.matsim.analysis.TravelDistanceStatsControlerListener
2020-02-14 13:30:56,909  INFO ControlerListenerManagerImpl:129 all ControlerShutdownListeners called.
2020-02-14 13:30:56,909  INFO MatsimRuntimeModifications:81 S H U T D O W N   ---   shutdown completed.
2020-02-14 13:30:56,909  INFO OutputDirectoryLogging:146 closing the logfile, i.e. messages sent to the logger after this message are not written to the logfile.
